
-------------------------------------------------------------------------
|    ___ _   _ ___                                                      |
|   / __| | | |_  )   Release 7.0.3 "Blackbird"                         |
|   \__ \ |_| |/ /                                                      |
|   |___/\___//___|   Suite (Computational Fluid Dynamics Code)         |
|                                                                       |
-------------------------------------------------------------------------
| SU2 Project Website: https://su2code.github.io                        |
|                                                                       |
| The SU2 Project is maintained by the SU2 Foundation                   |
| (http://su2foundation.org)                                            |
-------------------------------------------------------------------------
| Copyright 2012-2020, SU2 Contributors                                 |
|                                                                       |
| SU2 is free software; you can redistribute it and/or                  |
| modify it under the terms of the GNU Lesser General Public            |
| License as published by the Free Software Foundation; either          |
| version 2.1 of the License, or (at your option) any later version.    |
|                                                                       |
| SU2 is distributed in the hope that it will be useful,                |
| but WITHOUT ANY WARRANTY; without even the implied warranty of        |
| MERCHANTABILITY or FITNESS FOR A PARTICULAR PURPOSE. See the GNU      |
| Lesser General Public License for more details.                       |
|                                                                       |
| You should have received a copy of the GNU Lesser General Public      |
| License along with SU2. If not, see <http://www.gnu.org/licenses/>.   |
-------------------------------------------------------------------------

Parsing config file for zone 0

----------------- Physical Case Definition ( Zone 0 ) -------------------
Compressible Euler equations.
Mach number: 0.294.
Angle of attack (AoA): 10 deg, and angle of sideslip (AoS): 0 deg.
No restart solution, use the values at infinity (freestream).
Dimensional simulation.
The reference area is 10 m^2.
The semi-span will be computed using the max y(3D) value.
The reference length is 1 m.
Reference origin for moment evaluation is (0, 0, 0).
Surface(s) where the force coefficients are evaluated: Wing_1.

Surface(s) where the objective function is evaluated: airfoil.
Surface(s) plotted in the output file: Wing_1.
Surface(s) to be analyzed in detail: airfoil.
Surface(s) affected by the design variables: Wing_1.
Input mesh file name: deformed.su2

--------------- Space Numerical Integration ( Zone 0 ) ------------------
Roe (with entropy fix = 0) solver for the flow inviscid terms.
Roe with DDES's FD low-dissipation function.
Second order integration in space, with slope limiter.
Venkatakrishnan slope-limiting method, with constant: 0.05. 
The reference element size is: 1. 
Gradient for upwind reconstruction: Green-Gauss.
Gradient for viscous and source terms: Green-Gauss.

--------------- Time Numerical Integration  ( Zone 0 ) ------------------
Local time stepping (steady state simulation).
Euler implicit method for the flow equations.
FGMRES is used for solving the linear system.
Using a ILU(0) preconditioning.
Convergence criteria of the linear solver: 1e-06.
Max number of linear iterations: 5.
V Multigrid Cycle, with 3 multigrid levels.
Damping factor for the residual restriction: 0.75.
Damping factor for the correction prolongation: 0.75.
No CFL adaptation.
+-------------------------------------------+
|  MG Level| Presmooth|PostSmooth|CorrectSmo|
+-------------------------------------------+
|         0|         1|         0|         0|
|         1|         2|         0|         0|
|         2|         3|         0|         0|
|         3|         3|         0|         0|
+-------------------------------------------+
Courant-Friedrichs-Lewy number:        1

------------------ Convergence Criteria  ( Zone 0 ) ---------------------
Maximum number of solver subiterations: 1000.
Begin convergence monitoring at iteration 10.
Residual minimum value: 1e-8.
Cauchy series min. value: 1e-10.
Number of Cauchy elements: 100.
Begin windowed time average at iteration 15.

-------------------- Output Information ( Zone 0 ) ----------------------
Writing solution files every 10 iterations.
Writing the convergence history file every 1 inner iterations.
Writing the screen convergence history every 1 inner iterations.
The tabular file format is Tecplot (.dat).
Convergence history file name: history.
Forces breakdown file name: forces_breakdown.dat.
Surface file name: surface_flow.
Volume file name: flow.
Restart file name: solution_flow.dat.

------------- Config File Boundary Information ( Zone 0 ) ---------------
+-----------------------------------------------------------------------+
|                        Marker Type|                        Marker Name|
+-----------------------------------------------------------------------+
|                         Euler wall|                             Wing_1|
+-----------------------------------------------------------------------+
|                          Far-field|                           Farfield|
+-----------------------------------------------------------------------+
|                     Symmetry plane|                                  0|
+-----------------------------------------------------------------------+
|           Deformable mesh boundary|                            airfoil|
+-----------------------------------------------------------------------+

-------------------- Output Preprocessing ( Zone 0 ) --------------------
Screen output fields: INNER_ITER, TIME_ITER, RMS_DENSITY, RMS_MOMENTUM-X, RMS_MOMENTUM-Y, RMS_ENERGY, LIFT, DRAG
  Info: Ignoring the following history output groups:
  TIME_ITER
History output group(s): ITER, RMS_RES, AERO_COEFF
Warning: No (valid) fields chosen for convergence monitoring. Convergence monitoring inactive.
Warning: No (valid) fields chosen for time convergence monitoring. Time convergence monitoring inactive.
Volume output fields: COORDINATES, SOLUTION, PRIMITIVE

------------------- Geometry Preprocessing ( Zone 0 ) -------------------
Three dimensional problem.
142678 grid points before partitioning.
739205 volume elements before partitioning.
2 surface markers.
99234 boundary elements in index 0 (Marker = Wing_1).
1280 boundary elements in index 1 (Marker = Farfield).
Executing the partitioning functions.
Building the graph adjacency structure.
Calling ParMETIS... graph partitioning complete (4166 edge cuts).
Distributing ParMETIS coloring.
Rebalancing vertices.
Rebalancing volume element connectivity.
Rebalancing markers and surface elements.
144929 vertices including ghost points. 
745322 interior elements including halo cells. 
745322 tetrahedra.
Establishing MPI communication patterns.
Setting point connectivity.
Renumbering points (Reverse Cuthill McKee Ordering).
Recomputing point connectivity.
Setting element connectivity.
Checking the numerical grid orientation.
Identifying edges and vertices.
Computing centers of gravity.
Setting the control volume structure.
Volume of the computational grid: 587948.
Searching for the closest normal neighbors to the surfaces.
Storing a mapping from global to local point index.
Compute the surface curvature.
Max K: 956.661. Mean K: 12.8904. Standard deviation K: 55.0113.
Checking for periodicity.
Computing mesh quality statistics for the dual control volumes.
+--------------------------------------------------------------+
|           Mesh Quality Metric|        Minimum|        Maximum|
+--------------------------------------------------------------+
|    Orthogonality Angle (deg.)|        46.3403|        85.7735|
|     CV Face Area Aspect Ratio|        1.42184|        36.5292|
|           CV Sub-Volume Ratio|        1.02915|        142.952|
+--------------------------------------------------------------+
Setting the multigrid structure.
+-------------------------------------------+
|  MG Level|       CVs|Aggl. Rate|       CFL|
+-------------------------------------------+
|         0|    144929|    1/1.00|         1|
|         1|     24168|       1/6|  0.825632|
|         2|      3805|    1/6.35|  0.668727|
|         3|       762|    1/4.99|  0.586868|
+-------------------------------------------+
Finding max control volume width.
Communicating number of neighbors.
Semi-span length = 4.98603 m.
Wetted area = 42.1645 m^2.
Area projection in the x-plane = 3.09354 m^2, y-plane = 1.62915 m^2, z-plane = 20.0839 m^2.
Max. coordinate in the x-direction = 1.0223 m, y-direction = 4.98603 m, z-direction = 0.511461 m.
Min. coordinate in the x-direction = -1.02821 m, y-direction = -4.98525 m, z-direction = -0.117266 m.
Checking if Euler & Symmetry markers are straight/plane:
Boundary marker Wing_1 is NOT a single plane.
Boundary marker 0 is a single plane.

-------------------- Solver Preprocessing ( Zone 0 ) --------------------
Inviscid flow: Computing density based on free-stream
temperature and pressure using the ideal gas law.
Force coefficients computed using free-stream values.

-- Models:
+------------------------------------------------------------------------------+
|          Viscosity Model|        Conductivity Model|              Fluid Model|
+------------------------------------------------------------------------------+
|                        -|                         -|             STANDARD_AIR|
+------------------------------------------------------------------------------+
-- Fluid properties:
+------------------------------------------------------------------------------+
|                  Name|    Dim. value|    Ref. value|      Unit|Non-dim. value|
+------------------------------------------------------------------------------+
|          Gas Constant|       287.058|             1|  N.m/kg.K|       287.058|
|      Spec. Heat Ratio|             -|             -|         -|           1.4|
+------------------------------------------------------------------------------+
-- Initial and free-stream conditions:
+------------------------------------------------------------------------------+
|                  Name|    Dim. value|    Ref. value|      Unit|Non-dim. value|
+------------------------------------------------------------------------------+
|       Static Pressure|        101325|             1|        Pa|        101325|
|               Density|       1.22498|             1|    kg/m^3|       1.22498|
|           Temperature|        288.15|             1|         K|        288.15|
|          Total Energy|        211794|             1|   m^2/s^2|        211794|
|            Velocity-X|       98.5274|             1|       m/s|       98.5274|
|            Velocity-Y|             0|             1|       m/s|             0|
|            Velocity-Z|        17.373|             1|       m/s|        17.373|
|    Velocity Magnitude|       100.047|             1|       m/s|       100.047|
+------------------------------------------------------------------------------+
|           Mach Number|             -|             -|         -|         0.294|
+------------------------------------------------------------------------------+
Initialize Jacobian structure (Euler). MG level: 0.
Initialize Jacobian structure (Euler). MG level: 1.
Initialize Jacobian structure (Euler). MG level: 2.
Initialize Jacobian structure (Euler). MG level: 3.

------------------- Numerics Preprocessing ( Zone 0 ) -------------------

----------------- Integration Preprocessing ( Zone 0 ) ------------------

------------------- Iteration Preprocessing ( Zone 0 ) ------------------
Euler/Navier-Stokes/RANS fluid iteration.

------------------------------ Begin Solver -----------------------------

Simulation Run using the Single-zone Driver
+-------------------------------------------------------------------------------------------------------+
|  Inner_Iter|   Time_Iter|    rms[Rho]|   rms[RhoU]|   rms[RhoV]|   rms[RhoE]|          CL|          CD|
+-------------------------------------------------------------------------------------------------------+
|           0|           0|   -1.659188|    0.508318|   -0.311489|    3.809912|    2.198271|    0.979945|
|           1|           0|   -1.732920|    0.480371|    0.056656|    3.738071|    3.804799|    1.685497|
|           2|           0|   -1.671585|    0.602527|    0.299050|    3.802517|    4.902806|    2.154437|
|           3|           0|   -1.582458|    0.730091|    0.449183|    3.892666|    5.585199|    2.427998|
|           4|           0|   -1.501536|    0.843555|    0.568670|    3.974023|    5.938467|    2.545294|
|           5|           0|   -1.431402|    0.946061|    0.676559|    4.044610|    6.039425|    2.542491|
|           6|           0|   -1.370185|    1.039437|    0.777919|    4.106292|    5.953798|    2.451561|
|           7|           0|   -1.317106|    1.124083|    0.873293|    4.159740|    5.736831|    2.299802|
|           8|           0|   -1.272329|    1.200110|    0.962164|    4.204699|    5.435144|    2.110363|
|           9|           0|   -1.236023|    1.267710|    1.043954|    4.240932|    5.085948|    1.902124|
|          10|           0|   -1.208499|    1.327226|    1.118144|    4.268049|    4.715577|    1.688982|
+-----------------------------------------------------------------------+
|        File Writing Summary       |              Filename             |
+-----------------------------------------------------------------------+
|SU2 restart                        |solution_flow.dat                  |
|Paraview                           |flow.vtu                           |
|Paraview surface                   |surface_flow.vtu                   |
+-----------------------------------------------------------------------+

Writing the forces breakdown file (forces_breakdown.dat).
+-------------------------------------------------------------------------------------------------------+
|  Inner_Iter|   Time_Iter|    rms[Rho]|   rms[RhoU]|   rms[RhoV]|   rms[RhoE]|          CL|          CD|
+-------------------------------------------------------------------------------------------------------+
|          11|           0|   -1.189979|    1.378867|    1.184525|    4.285693|    4.342603|    1.480705|
|          12|           0|   -1.180473|    1.422961|    1.243188|    4.293694|    3.979522|    1.283870|
|          13|           0|   -1.179883|    1.459799|    1.294214|    4.291918|    3.633501|    1.102181|
|          14|           0|   -1.187613|    1.489543|    1.337699|    4.280582|    3.307635|    0.937072|
|          15|           0|   -1.202786|    1.512416|    1.373791|    4.260089|    3.002238|    0.788429|
|          16|           0|   -1.223196|    1.528655|    1.402692|    4.232152|    2.715711|    0.655082|
|          17|           0|   -1.244746|    1.538440|    1.424445|    4.200835|    2.445552|    0.535333|
|          18|           0|   -1.261589|    1.542011|    1.439157|    4.173205|    2.188997|    0.427279|
|          19|           0|   -1.266255|    1.539454|    1.446958|    4.160055|    1.943486|    0.329078|
|          20|           0|   -1.254819|    1.531005|    1.447865|    4.169156|    1.707027|    0.239102|
+-----------------------------------------------------------------------+
|        File Writing Summary       |              Filename             |
+-----------------------------------------------------------------------+
|SU2 restart                        |solution_flow.dat                  |
|Paraview                           |flow.vtu                           |
|Paraview surface                   |surface_flow.vtu                   |
+-----------------------------------------------------------------------+

Writing the forces breakdown file (forces_breakdown.dat).
+-------------------------------------------------------------------------------------------------------+
|  Inner_Iter|   Time_Iter|    rms[Rho]|   rms[RhoU]|   rms[RhoV]|   rms[RhoE]|          CL|          CD|
+-------------------------------------------------------------------------------------------------------+
|          21|           0|   -1.228793|    1.517105|    1.442113|    4.199536|    1.478320|    0.156038|
|          22|           0|   -1.193935|    1.497992|    1.429876|    4.242485|    1.256958|    0.078960|
|          23|           0|   -1.156810|    1.474586|    1.411233|    4.288298|    1.043346|    0.007307|
|          24|           0|   -1.122246|    1.447243|    1.386684|    4.330508|    0.838584|   -0.059133|
|          25|           0|   -1.093050|    1.417699|    1.356825|    4.365859|    0.644300|   -0.120299|
|          26|           0|   -1.070828|    1.387916|    1.323307|    4.392706|    0.462446|   -0.175944|
|          27|           0|   -1.055395|    1.359974|    1.287829|    4.411326|    0.295161|   -0.225689|
|          28|           0|   -1.046675|    1.335654|    1.252880|    4.421835|    0.144561|   -0.269092|
|          29|           0|   -1.043751|    1.319735|    1.222859|    4.425410|    0.012609|   -0.305716|
|          30|           0|   -1.045786|    1.313945|    1.201266|    4.422925|   -0.098974|   -0.335178|
+-----------------------------------------------------------------------+
|        File Writing Summary       |              Filename             |
+-----------------------------------------------------------------------+
|SU2 restart                        |solution_flow.dat                  |
|Paraview                           |flow.vtu                           |
|Paraview surface                   |surface_flow.vtu                   |
+-----------------------------------------------------------------------+

Writing the forces breakdown file (forces_breakdown.dat).
+-------------------------------------------------------------------------------------------------------+
|  Inner_Iter|   Time_Iter|    rms[Rho]|   rms[RhoU]|   rms[RhoV]|   rms[RhoE]|          CL|          CD|
+-------------------------------------------------------------------------------------------------------+
|          31|           0|   -1.051215|    1.317775|    1.191101|    4.415923|   -0.188782|   -0.357185|
|          32|           0|   -1.058792|    1.330249|    1.193430|    4.405620|   -0.255756|   -0.371549|
|          33|           0|   -1.066543|    1.348484|    1.207730|    4.394295|   -0.299229|   -0.378195|
|          34|           0|   -1.072935|    1.370259|    1.230355|    4.383677|   -0.318936|   -0.377179|
|          35|           0|   -1.077718|    1.394638|    1.257379|    4.374538|   -0.314996|   -0.368677|
|          36|           0|   -1.081050|    1.419724|    1.286568|    4.367361|   -0.287923|   -0.352985|
|          37|           0|   -1.084312|    1.443039|    1.315740|    4.360797|   -0.238547|   -0.330484|
|          38|           0|   -1.087858|    1.463094|    1.343286|    4.354447|   -0.168031|   -0.301656|
|          39|           0|   -1.092331|    1.479124|    1.369122|    4.347576|   -0.077818|   -0.267053|
|          40|           0|   -1.098259|    1.490777|    1.391984|    4.339550|    0.030387|   -0.227296|
+-----------------------------------------------------------------------+
|        File Writing Summary       |              Filename             |
+-----------------------------------------------------------------------+
|SU2 restart                        |solution_flow.dat                  |
|Paraview                           |flow.vtu                           |
|Paraview surface                   |surface_flow.vtu                   |
+-----------------------------------------------------------------------+

Writing the forces breakdown file (forces_breakdown.dat).
+-------------------------------------------------------------------------------------------------------+
|  Inner_Iter|   Time_Iter|    rms[Rho]|   rms[RhoU]|   rms[RhoV]|   rms[RhoE]|          CL|          CD|
+-------------------------------------------------------------------------------------------------------+
|          41|           0|   -1.105558|    1.497687|    1.410597|    4.330489|    0.154643|   -0.183060|
|          42|           0|   -1.112514|    1.499368|    1.424642|    4.322231|    0.292809|   -0.135066|
|          43|           0|   -1.117909|    1.495570|    1.433573|    4.316122|    0.442579|   -0.084071|
|          44|           0|   -1.120261|    1.486354|    1.437452|    4.314009|    0.601521|   -0.030849|
|          45|           0|   -1.118047|    1.471599|    1.435977|    4.317585|    0.767126|    0.023806|
|          46|           0|   -1.110777|    1.451418|    1.429495|    4.327287|    0.936841|    0.079102|
|          47|           0|   -1.100054|    1.426404|    1.418909|    4.341112|    1.108117|    0.134261|
|          48|           0|   -1.087713|    1.397274|    1.404886|    4.356714|    1.278420|    0.188511|
|          49|           0|   -1.075675|    1.366020|    1.388558|    4.371857|    1.445304|    0.241114|
|          50|           0|   -1.065306|    1.335137|    1.371806|    4.384880|    1.606418|    0.291362|
+-----------------------------------------------------------------------+
|        File Writing Summary       |              Filename             |
+-----------------------------------------------------------------------+
|SU2 restart                        |solution_flow.dat                  |
|Paraview                           |flow.vtu                           |
|Paraview surface                   |surface_flow.vtu                   |
+-----------------------------------------------------------------------+

Writing the forces breakdown file (forces_breakdown.dat).
+-------------------------------------------------------------------------------------------------------+
|  Inner_Iter|   Time_Iter|    rms[Rho]|   rms[RhoU]|   rms[RhoV]|   rms[RhoE]|          CL|          CD|
+-------------------------------------------------------------------------------------------------------+
|          51|           0|   -1.058339|    1.307754|    1.356529|    4.394017|    1.759569|    0.338596|
|          52|           0|   -1.056566|    1.288033|    1.345428|    4.397353|    1.902740|    0.382213|
|          53|           0|   -1.059279|    1.279005|    1.340128|    4.395565|    2.034139|    0.421677|
|          54|           0|   -1.066675|    1.281771|    1.341777|    4.388299|    2.152216|    0.456527|
|          55|           0|   -1.079098|    1.293505|    1.349469|    4.375062|    2.255698|    0.486391|
|          56|           0|   -1.095544|    1.310763|    1.361737|    4.356690|    2.343616|    0.510987|
|          57|           0|   -1.113993|    1.329395|    1.376185|    4.335144|    2.415284|    0.530126|
|          58|           0|   -1.133465|    1.347462|    1.390965|    4.311298|    2.470327|    0.543715|
|          59|           0|   -1.152079|    1.363180|    1.404641|    4.287048|    2.508669|    0.551754|
|          60|           0|   -1.167815|    1.375550|    1.416052|    4.264941|    2.530523|    0.554336|
+-----------------------------------------------------------------------+
|        File Writing Summary       |              Filename             |
+-----------------------------------------------------------------------+
|SU2 restart                        |solution_flow.dat                  |
|Paraview                           |flow.vtu                           |
|Paraview surface                   |surface_flow.vtu                   |
+-----------------------------------------------------------------------+

Writing the forces breakdown file (forces_breakdown.dat).
+-------------------------------------------------------------------------------------------------------+
|  Inner_Iter|   Time_Iter|    rms[Rho]|   rms[RhoU]|   rms[RhoV]|   rms[RhoE]|          CL|          CD|
+-------------------------------------------------------------------------------------------------------+
|          61|           0|   -1.180308|    1.383936|    1.424826|    4.246166|    2.536373|    0.551641|
|          62|           0|   -1.188548|    1.388740|    1.430551|    4.232720|    2.526940|    0.543929|
|          63|           0|   -1.192363|    1.389420|    1.433234|    4.225604|    2.503173|    0.531532|
|          64|           0|   -1.192460|    1.386675|    1.432832|    4.224346|    2.466243|    0.514852|
|          65|           0|   -1.189726|    1.380829|    1.429479|    4.228166|    2.417462|    0.494343|
|          66|           0|   -1.185240|    1.371997|    1.423261|    4.235588|    2.358295|    0.470507|
|          67|           0|   -1.180272|    1.359936|    1.414533|    4.244701|    2.290295|    0.443878|
|          68|           0|   -1.176066|    1.344731|    1.403512|    4.253595|    2.215093|    0.415014|
|          69|           0|   -1.173221|    1.327378|    1.390752|    4.261243|    2.134375|    0.384488|
|          70|           0|   -1.172047|    1.308405|    1.376963|    4.267057|    2.049822|    0.352873|
+-----------------------------------------------------------------------+
|        File Writing Summary       |              Filename             |
+-----------------------------------------------------------------------+
|SU2 restart                        |solution_flow.dat                  |
|Paraview                           |flow.vtu                           |
|Paraview surface                   |surface_flow.vtu                   |
+-----------------------------------------------------------------------+

Writing the forces breakdown file (forces_breakdown.dat).
+-------------------------------------------------------------------------------------------------------+
|  Inner_Iter|   Time_Iter|    rms[Rho]|   rms[RhoU]|   rms[RhoV]|   rms[RhoE]|          CL|          CD|
+-------------------------------------------------------------------------------------------------------+
|          71|           0|   -1.172876|    1.288085|    1.362613|    4.270446|    1.963084|    0.320727|
|          72|           0|   -1.175874|    1.267604|    1.348749|    4.271079|    1.875776|    0.288595|
|          73|           0|   -1.180788|    1.248004|    1.335988|    4.269131|    1.789448|    0.256997|
|          74|           0|   -1.187256|    1.230772|    1.325273|    4.264902|    1.705542|    0.226413|
|          75|           0|   -1.195441|    1.217090|    1.317117|    4.258139|    1.625368|    0.197277|
|          76|           0|   -1.205167|    1.207893|    1.311756|    4.248896|    1.550105|    0.169976|
|          77|           0|   -1.216517|    1.204344|    1.309233|    4.237047|    1.480782|    0.144845|
|          78|           0|   -1.228863|    1.205913|    1.309294|    4.223149|    1.418281|    0.122164|
|          79|           0|   -1.242458|    1.211934|    1.311224|    4.206875|    1.363316|    0.102154|
|          80|           0|   -1.257215|    1.220869|    1.314183|    4.188248|    1.316421|    0.084975|
+-----------------------------------------------------------------------+
|        File Writing Summary       |              Filename             |
+-----------------------------------------------------------------------+
|SU2 restart                        |solution_flow.dat                  |
|Paraview                           |flow.vtu                           |
|Paraview surface                   |surface_flow.vtu                   |
+-----------------------------------------------------------------------+

Writing the forces breakdown file (forces_breakdown.dat).
+-------------------------------------------------------------------------------------------------------+
|  Inner_Iter|   Time_Iter|    rms[Rho]|   rms[RhoU]|   rms[RhoV]|   rms[RhoE]|          CL|          CD|
+-------------------------------------------------------------------------------------------------------+
|          81|           0|   -1.271820|    1.231036|    1.317388|    4.168781|    1.277977|    0.070731|
|          82|           0|   -1.286101|    1.241766|    1.320320|    4.148859|    1.248187|    0.059465|
|          83|           0|   -1.299804|    1.251559|    1.322566|    4.129031|    1.227115|    0.051173|
|          84|           0|   -1.311971|    1.259171|    1.323594|    4.110854|    1.214667|    0.045796|
|          85|           0|   -1.322733|    1.264907|    1.322784|    4.094835|    1.210612|    0.043229|
|          86|           0|   -1.332626|    1.268406|    1.319994|    4.080845|    1.214580|    0.043321|
|          87|           0|   -1.341457|    1.269447|    1.314845|    4.069384|    1.226107|    0.045890|
|          88|           0|   -1.349210|    1.267794|    1.307489|    4.060706|    1.244611|    0.050720|
|          89|           0|   -1.355984|    1.263808|    1.297932|    4.054681|    1.269448|    0.057576|
|          90|           0|   -1.362081|    1.257150|    1.286573|    4.050931|    1.299892|    0.066203|
+-----------------------------------------------------------------------+
|        File Writing Summary       |              Filename             |
+-----------------------------------------------------------------------+
|SU2 restart                        |solution_flow.dat                  |
|Paraview                           |flow.vtu                           |
|Paraview surface                   |surface_flow.vtu                   |
+-----------------------------------------------------------------------+

Writing the forces breakdown file (forces_breakdown.dat).
+-------------------------------------------------------------------------------------------------------+
|  Inner_Iter|   Time_Iter|    rms[Rho]|   rms[RhoU]|   rms[RhoV]|   rms[RhoE]|          CL|          CD|
+-------------------------------------------------------------------------------------------------------+
|          91|           0|   -1.367659|    1.247526|    1.273436|    4.048965|    1.335183|    0.076336|
|          92|           0|   -1.373022|    1.235241|    1.258504|    4.048066|    1.374513|    0.087701|
|          93|           0|   -1.378910|    1.220731|    1.242299|    4.047018|    1.417049|    0.100019|
|          94|           0|   -1.385527|    1.204443|    1.225400|    4.045388|    1.461965|    0.113016|
|          95|           0|   -1.393175|    1.186988|    1.208144|    4.042613|    1.508428|    0.126426|
|          96|           0|   -1.402003|    1.168836|    1.191154|    4.038345|    1.555643|    0.139996|
|          97|           0|   -1.411847|    1.150876|    1.174795|    4.032623|    1.602841|    0.153489|
|          98|           0|   -1.422595|    1.133609|    1.159441|    4.025428|    1.649303|    0.166686|
|          99|           0|   -1.435049|    1.118406|    1.145629|    4.015736|    1.694364|    0.179390|
|         100|           0|   -1.448775|    1.106086|    1.133829|    4.004089|    1.737384|    0.191419|
+-----------------------------------------------------------------------+
|        File Writing Summary       |              Filename             |
+-----------------------------------------------------------------------+
|SU2 restart                        |solution_flow.dat                  |
|Paraview                           |flow.vtu                           |
|Paraview surface                   |surface_flow.vtu                   |
+-----------------------------------------------------------------------+

Writing the forces breakdown file (forces_breakdown.dat).
+-------------------------------------------------------------------------------------------------------+
|  Inner_Iter|   Time_Iter|    rms[Rho]|   rms[RhoU]|   rms[RhoV]|   rms[RhoE]|          CL|          CD|
+-------------------------------------------------------------------------------------------------------+
|         101|           0|   -1.463504|    1.097126|    1.124221|    3.990736|    1.777829|    0.202625|
|         102|           0|   -1.479036|    1.091608|    1.116712|    3.975780|    1.815220|    0.212880|
|         103|           0|   -1.495198|    1.089477|    1.111066|    3.959353|    1.849156|    0.222084|
|         104|           0|   -1.511950|    1.090153|    1.106769|    3.941555|    1.879312|    0.230161|
|         105|           0|   -1.528963|    1.093414|    1.103329|    3.922771|    1.905442|    0.237058|
|         106|           0|   -1.546286|    1.098587|    1.100311|    3.902930|    1.927382|    0.242749|
|         107|           0|   -1.563043|    1.104514|    1.097327|    3.882980|    1.945041|    0.247232|
|         108|           0|   -1.579417|    1.110327|    1.093835|    3.862911|    1.958390|    0.250519|
|         109|           0|   -1.595451|    1.115618|    1.089654|    3.842940|    1.967492|    0.252650|
|         110|           0|   -1.610799|    1.119841|    1.084538|    3.823755|    1.972468|    0.253672|
+-----------------------------------------------------------------------+
|        File Writing Summary       |              Filename             |
+-----------------------------------------------------------------------+
|SU2 restart                        |solution_flow.dat                  |
|Paraview                           |flow.vtu                           |
|Paraview surface                   |surface_flow.vtu                   |
+-----------------------------------------------------------------------+

Writing the forces breakdown file (forces_breakdown.dat).
+-------------------------------------------------------------------------------------------------------+
|  Inner_Iter|   Time_Iter|    rms[Rho]|   rms[RhoU]|   rms[RhoV]|   rms[RhoE]|          CL|          CD|
+-------------------------------------------------------------------------------------------------------+
|         111|           0|   -1.625464|    1.123164|    1.078577|    3.805517|    1.973491|    0.253652|
|         112|           0|   -1.638871|    1.125260|    1.071393|    3.789233|    1.970785|    0.252664|
|         113|           0|   -1.651025|    1.126191|    1.062804|    3.775108|    1.964602|    0.250786|
|         114|           0|   -1.662101|    1.125833|    1.052581|    3.763086|    1.955253|    0.248110|
|         115|           0|   -1.672006|    1.124079|    1.040725|    3.753437|    1.943085|    0.244732|
|         116|           0|   -1.680628|    1.120897|    1.027120|    3.746290|    1.928467|    0.240753|
|         117|           0|   -1.687832|    1.116180|    1.011805|    3.741592|    1.911784|    0.236276|
|         118|           0|   -1.693812|    1.109987|    0.994718|    3.739015|    1.893426|    0.231398|
|         119|           0|   -1.698493|    1.102476|    0.975968|    3.738406|    1.873788|    0.226217|
|         120|           0|   -1.702180|    1.093791|    0.955675|    3.739192|    1.853250|    0.220823|
+-----------------------------------------------------------------------+
|        File Writing Summary       |              Filename             |
+-----------------------------------------------------------------------+
|SU2 restart                        |solution_flow.dat                  |
|Paraview                           |flow.vtu                           |
|Paraview surface                   |surface_flow.vtu                   |
+-----------------------------------------------------------------------+

Writing the forces breakdown file (forces_breakdown.dat).
+-------------------------------------------------------------------------------------------------------+
|  Inner_Iter|   Time_Iter|    rms[Rho]|   rms[RhoU]|   rms[RhoV]|   rms[RhoE]|          CL|          CD|
+-------------------------------------------------------------------------------------------------------+
|         121|           0|   -1.705079|    1.084050|    0.934126|    3.740870|    1.832196|    0.215308|
|         122|           0|   -1.707315|    1.073292|    0.911526|    3.743089|    1.810993|    0.209755|
|         123|           0|   -1.709438|    1.062073|    0.888316|    3.745117|    1.789989|    0.204242|
|         124|           0|   -1.711973|    1.050769|    0.864899|    3.746217|    1.769520|    0.198842|
|         125|           0|   -1.715189|    1.039465|    0.841863|    3.745985|    1.749897|    0.193623|
|         126|           0|   -1.719323|    1.028272|    0.820097|    3.743931|    1.731400|    0.188642|
|         127|           0|   -1.724499|    1.017739|    0.800604|    3.740247|    1.714271|    0.183951|
|         128|           0|   -1.731115|    1.008030|    0.784161|    3.734285|    1.698726|    0.179592|
|         129|           0|   -1.739268|    0.999687|    0.771608|    3.726080|    1.684950|    0.175601|
|         130|           0|   -1.748775|    0.992569|    0.763265|    3.715743|    1.673092|    0.172006|
+-----------------------------------------------------------------------+
|        File Writing Summary       |              Filename             |
+-----------------------------------------------------------------------+
|SU2 restart                        |solution_flow.dat                  |
|Paraview                           |flow.vtu                           |
|Paraview surface                   |surface_flow.vtu                   |
+-----------------------------------------------------------------------+

Writing the forces breakdown file (forces_breakdown.dat).
+-------------------------------------------------------------------------------------------------------+
|  Inner_Iter|   Time_Iter|    rms[Rho]|   rms[RhoU]|   rms[RhoV]|   rms[RhoE]|          CL|          CD|
+-------------------------------------------------------------------------------------------------------+
|         131|           0|   -1.759515|    0.985190|    0.758548|    3.703065|    1.663265|    0.168827|
|         132|           0|   -1.771186|    0.978627|    0.757381|    3.688670|    1.655551|    0.166079|
|         133|           0|   -1.783404|    0.973059|    0.759172|    3.673019|    1.650004|    0.163772|
|         134|           0|   -1.795524|    0.968456|    0.762937|    3.656815|    1.646641|    0.161908|
|         135|           0|   -1.807281|    0.964879|    0.767938|    3.640349|    1.645439|    0.160479|
|         136|           0|   -1.818397|    0.961861|    0.773298|    3.623998|    1.646349|    0.159473|
|         137|           0|   -1.828155|    0.958705|    0.778140|    3.608651|    1.649299|    0.158877|
|         138|           0|   -1.836296|    0.955408|    0.781906|    3.594871|    1.654181|    0.158666|
|         139|           0|   -1.842717|    0.951571|    0.784036|    3.583196|    1.660854|    0.158809|
|         140|           0|   -1.847299|    0.946931|    0.784172|    3.574284|    1.669152|    0.159273|
+-----------------------------------------------------------------------+
|        File Writing Summary       |              Filename             |
+-----------------------------------------------------------------------+
|SU2 restart                        |solution_flow.dat                  |
|Paraview                           |flow.vtu                           |
|Paraview surface                   |surface_flow.vtu                   |
+-----------------------------------------------------------------------+

Writing the forces breakdown file (forces_breakdown.dat).
+-------------------------------------------------------------------------------------------------------+
|  Inner_Iter|   Time_Iter|    rms[Rho]|   rms[RhoU]|   rms[RhoV]|   rms[RhoE]|          CL|          CD|
+-------------------------------------------------------------------------------------------------------+
|         141|           0|   -1.850132|    0.941366|    0.782150|    3.568427|    1.678896|    0.160020|
|         142|           0|   -1.851119|    0.934650|    0.777972|    3.565922|    1.689882|    0.161009|
|         143|           0|   -1.850796|    0.926848|    0.771495|    3.566245|    1.701900|    0.162200|
|         144|           0|   -1.849370|    0.917882|    0.762781|    3.569000|    1.714724|    0.163549|
|         145|           0|   -1.847690|    0.907591|    0.751830|    3.573129|    1.728136|    0.165018|
|         146|           0|   -1.846201|    0.896221|    0.738647|    3.577978|    1.741903|    0.166564|
|         147|           0|   -1.845207|    0.883896|    0.723238|    3.582933|    1.755793|    0.168146|
|         148|           0|   -1.844668|    0.870637|    0.705685|    3.587862|    1.769591|    0.169724|
|         149|           0|   -1.844931|    0.856730|    0.686358|    3.592168|    1.783079|    0.171260|
|         150|           0|   -1.845958|    0.842321|    0.665811|    3.595637|    1.796064|    0.172722|
+-----------------------------------------------------------------------+
|        File Writing Summary       |              Filename             |
+-----------------------------------------------------------------------+
|SU2 restart                        |solution_flow.dat                  |
|Paraview                           |flow.vtu                           |
|Paraview surface                   |surface_flow.vtu                   |
+-----------------------------------------------------------------------+

Writing the forces breakdown file (forces_breakdown.dat).
+-------------------------------------------------------------------------------------------------------+
|  Inner_Iter|   Time_Iter|    rms[Rho]|   rms[RhoU]|   rms[RhoV]|   rms[RhoE]|          CL|          CD|
+-------------------------------------------------------------------------------------------------------+
|         151|           0|   -1.847930|    0.827742|    0.644557|    3.597949|    1.808367|    0.174083|
|         152|           0|   -1.850851|    0.813150|    0.623285|    3.598958|    1.819825|    0.175320|
|         153|           0|   -1.854874|    0.798854|    0.602800|    3.598366|    1.830293|    0.176413|
|         154|           0|   -1.860040|    0.785443|    0.584282|    3.595982|    1.839644|    0.177344|
|         155|           0|   -1.866173|    0.773312|    0.568986|    3.591899|    1.847770|    0.178102|
|         156|           0|   -1.873477|    0.762928|    0.557731|    3.585845|    1.854584|    0.178674|
|         157|           0|   -1.881760|    0.754521|    0.551017|    3.578005|    1.860030|    0.179056|
|         158|           0|   -1.890981|    0.748048|    0.548908|    3.568284|    1.864075|    0.179249|
|         159|           0|   -1.900842|    0.743322|    0.550859|    3.556951|    1.866712|    0.179257|
|         160|           0|   -1.911274|    0.740227|    0.555883|    3.543957|    1.867948|    0.179086|
+-----------------------------------------------------------------------+
|        File Writing Summary       |              Filename             |
+-----------------------------------------------------------------------+
|SU2 restart                        |solution_flow.dat                  |
|Paraview                           |flow.vtu                           |
|Paraview surface                   |surface_flow.vtu                   |
+-----------------------------------------------------------------------+

Writing the forces breakdown file (forces_breakdown.dat).
+-------------------------------------------------------------------------------------------------------+
|  Inner_Iter|   Time_Iter|    rms[Rho]|   rms[RhoU]|   rms[RhoV]|   rms[RhoE]|          CL|          CD|
+-------------------------------------------------------------------------------------------------------+
|         161|           0|   -1.922126|    0.738511|    0.562860|    3.529541|    1.867815|    0.178746|
|         162|           0|   -1.933333|    0.737862|    0.570802|    3.513784|    1.866370|    0.178250|
|         163|           0|   -1.944595|    0.737637|    0.578759|    3.497043|    1.863695|    0.177617|
|         164|           0|   -1.955572|    0.737497|    0.585963|    3.479918|    1.859872|    0.176862|
|         165|           0|   -1.966006|    0.737095|    0.591810|    3.462934|    1.855022|    0.176010|
|         166|           0|   -1.975413|    0.735907|    0.595841|    3.447000|    1.849261|    0.175079|
|         167|           0|   -1.983609|    0.733649|    0.597713|    3.432739|    1.842722|    0.174095|
|         168|           0|   -1.990569|    0.729886|    0.597104|    3.420680|    1.835541|    0.173079|
|         169|           0|   -1.996281|    0.724359|    0.593805|    3.411231|    1.827869|    0.172055|
|         170|           0|   -2.000615|    0.716865|    0.587766|    3.404837|    1.819855|    0.171046|
+-----------------------------------------------------------------------+
|        File Writing Summary       |              Filename             |
+-----------------------------------------------------------------------+
|SU2 restart                        |solution_flow.dat                  |
|Paraview                           |flow.vtu                           |
|Paraview surface                   |surface_flow.vtu                   |
+-----------------------------------------------------------------------+

Writing the forces breakdown file (forces_breakdown.dat).
+-------------------------------------------------------------------------------------------------------+
|  Inner_Iter|   Time_Iter|    rms[Rho]|   rms[RhoU]|   rms[RhoV]|   rms[RhoE]|          CL|          CD|
+-------------------------------------------------------------------------------------------------------+
|         171|           0|   -2.003571|    0.707335|    0.578972|    3.401674|    1.811644|    0.170072|
|         172|           0|   -2.005701|    0.695754|    0.567501|    3.401040|    1.803396|    0.169155|
|         173|           0|   -2.006985|    0.682102|    0.553488|    3.402793|    1.795261|    0.168318|
|         174|           0|   -2.007917|    0.666522|    0.536989|    3.406014|    1.787368|    0.167573|
|         175|           0|   -2.008857|    0.649130|    0.518184|    3.410025|    1.779852|    0.166936|
|         176|           0|   -2.010146|    0.630122|    0.497485|    3.414104|    1.772822|    0.166415|
|         177|           0|   -2.012132|    0.609591|    0.475293|    3.417559|    1.766388|    0.166021|
|         178|           0|   -2.014715|    0.587988|    0.452388|    3.420280|    1.760650|    0.165761|
|         179|           0|   -2.018250|    0.565884|    0.429601|    3.421733|    1.755687|    0.165637|
|         180|           0|   -2.022933|    0.543772|    0.408105|    3.421506|    1.751561|    0.165648|
+-----------------------------------------------------------------------+
|        File Writing Summary       |              Filename             |
+-----------------------------------------------------------------------+
|SU2 restart                        |solution_flow.dat                  |
|Paraview                           |flow.vtu                           |
|Paraview surface                   |surface_flow.vtu                   |
+-----------------------------------------------------------------------+

Writing the forces breakdown file (forces_breakdown.dat).
+-------------------------------------------------------------------------------------------------------+
|  Inner_Iter|   Time_Iter|    rms[Rho]|   rms[RhoU]|   rms[RhoV]|   rms[RhoE]|          CL|          CD|
+-------------------------------------------------------------------------------------------------------+
|         181|           0|   -2.028684|    0.522355|    0.389010|    3.419595|    1.748326|    0.165793|
|         182|           0|   -2.035749|    0.502355|    0.373495|    3.415632|    1.746018|    0.166067|
|         183|           0|   -2.043977|    0.484733|    0.362462|    3.409775|    1.744650|    0.166461|
|         184|           0|   -2.053243|    0.470230|    0.356248|    3.402030|    1.744226|    0.166963|
|         185|           0|   -2.063315|    0.459438|    0.354867|    3.392603|    1.744738|    0.167563|
|         186|           0|   -2.073780|    0.452524|    0.357673|    3.381943|    1.746164|    0.168248|
|         187|           0|   -2.084596|    0.449450|    0.363688|    3.370005|    1.748464|    0.169001|
|         188|           0|   -2.095735|    0.449889|    0.371721|    3.356788|    1.751588|    0.169807|
|         189|           0|   -2.106664|    0.453277|    0.380691|    3.342949|    1.755476|    0.170648|
|         190|           0|   -2.117184|    0.458615|    0.389708|    3.328751|    1.760061|    0.171509|
+-----------------------------------------------------------------------+
|        File Writing Summary       |              Filename             |
+-----------------------------------------------------------------------+
|SU2 restart                        |solution_flow.dat                  |
|Paraview                           |flow.vtu                           |
|Paraview surface                   |surface_flow.vtu                   |
+-----------------------------------------------------------------------+

Writing the forces breakdown file (forces_breakdown.dat).
+-------------------------------------------------------------------------------------------------------+
|  Inner_Iter|   Time_Iter|    rms[Rho]|   rms[RhoU]|   rms[RhoV]|   rms[RhoE]|          CL|          CD|
+-------------------------------------------------------------------------------------------------------+
|         191|           0|   -2.127209|    0.465201|    0.397981|    3.314404|    1.765266|    0.172371|
|         192|           0|   -2.136631|    0.472123|    0.404905|    3.300234|    1.771011|    0.173219|
|         193|           0|   -2.145318|    0.478715|    0.410147|    3.286587|    1.777206|    0.174037|
|         194|           0|   -2.152917|    0.484438|    0.413354|    3.274180|    1.783762|    0.174810|
|         195|           0|   -2.159328|    0.489047|    0.414389|    3.263461|    1.790579|    0.175523|
|         196|           0|   -2.164955|    0.492297|    0.413115|    3.254274|    1.797563|    0.176162|
|         197|           0|   -2.169659|    0.493870|    0.409521|    3.247028|    1.804613|    0.176714|
|         198|           0|   -2.173598|    0.493637|    0.403577|    3.241698|    1.811629|    0.177169|
|         199|           0|   -2.176924|    0.491590|    0.395305|    3.238185|    1.818517|    0.177517|
|         200|           0|   -2.179689|    0.487752|    0.384803|    3.236419|    1.825188|    0.177752|
+-----------------------------------------------------------------------+
|        File Writing Summary       |              Filename             |
+-----------------------------------------------------------------------+
|SU2 restart                        |solution_flow.dat                  |
|Paraview                           |flow.vtu                           |
|Paraview surface                   |surface_flow.vtu                   |
+-----------------------------------------------------------------------+

Writing the forces breakdown file (forces_breakdown.dat).
+-------------------------------------------------------------------------------------------------------+
|  Inner_Iter|   Time_Iter|    rms[Rho]|   rms[RhoU]|   rms[RhoV]|   rms[RhoE]|          CL|          CD|
+-------------------------------------------------------------------------------------------------------+
|         201|           0|   -2.182136|    0.482099|    0.371978|    3.235977|    1.831557|    0.177866|
|         202|           0|   -2.184558|    0.474928|    0.357180|    3.236434|    1.837544|    0.177857|
|         203|           0|   -2.187245|    0.466413|    0.340607|    3.237234|    1.843083|    0.177724|
|         204|           0|   -2.190482|    0.456734|    0.322565|    3.237889|    1.848102|    0.177467|
|         205|           0|   -2.194222|    0.445930|    0.303425|    3.238277|    1.852553|    0.177088|
|         206|           0|   -2.198650|    0.434261|    0.283607|    3.237957|    1.856384|    0.176592|
|         207|           0|   -2.203947|    0.422077|    0.263818|    3.236570|    1.859564|    0.175983|
|         208|           0|   -2.210185|    0.409618|    0.244790|    3.233894|    1.862062|    0.175270|
|         209|           0|   -2.217344|    0.397701|    0.227392|    3.229880|    1.863866|    0.174461|
|         210|           0|   -2.225511|    0.386699|    0.212598|    3.224307|    1.864973|    0.173568|
+-----------------------------------------------------------------------+
|        File Writing Summary       |              Filename             |
+-----------------------------------------------------------------------+
|SU2 restart                        |solution_flow.dat                  |
|Paraview                           |flow.vtu                           |
|Paraview surface                   |surface_flow.vtu                   |
+-----------------------------------------------------------------------+

Writing the forces breakdown file (forces_breakdown.dat).
+-------------------------------------------------------------------------------------------------------+
|  Inner_Iter|   Time_Iter|    rms[Rho]|   rms[RhoU]|   rms[RhoV]|   rms[RhoE]|          CL|          CD|
+-------------------------------------------------------------------------------------------------------+
|         211|           0|   -2.234719|    0.376907|    0.201113|    3.217035|    1.865389|    0.172603|
|         212|           0|   -2.244797|    0.368560|    0.193393|    3.208145|    1.865133|    0.171580|
|         213|           0|   -2.255638|    0.361761|    0.189554|    3.197671|    1.864225|    0.170512|
|         214|           0|   -2.267130|    0.356538|    0.189307|    3.185658|    1.862707|    0.169416|
|         215|           0|   -2.279182|    0.352802|    0.191940|    3.172166|    1.860615|    0.168304|
|         216|           0|   -2.291457|    0.350312|    0.196555|    3.157451|    1.858011|    0.167197|
|         217|           0|   -2.303730|    0.348728|    0.202226|    3.141710|    1.854944|    0.166106|
|         218|           0|   -2.315619|    0.347754|    0.208082|    3.125440|    1.851483|    0.165049|
|         219|           0|   -2.326911|    0.346990|    0.213463|    3.108996|    1.847691|    0.164039|
|         220|           0|   -2.337403|    0.346112|    0.217800|    3.092823|    1.843645|    0.163092|
+-----------------------------------------------------------------------+
|        File Writing Summary       |              Filename             |
+-----------------------------------------------------------------------+
|SU2 restart                        |solution_flow.dat                  |
|Paraview                           |flow.vtu                           |
|Paraview surface                   |surface_flow.vtu                   |
+-----------------------------------------------------------------------+

Writing the forces breakdown file (forces_breakdown.dat).
+-------------------------------------------------------------------------------------------------------+
|  Inner_Iter|   Time_Iter|    rms[Rho]|   rms[RhoU]|   rms[RhoV]|   rms[RhoE]|          CL|          CD|
+-------------------------------------------------------------------------------------------------------+
|         221|           0|   -2.346905|    0.344642|    0.220662|    3.077428|    1.839417|    0.162222|
|         222|           0|   -2.355338|    0.342338|    0.221688|    3.063259|    1.835082|    0.161439|
|         223|           0|   -2.362624|    0.339113|    0.220811|    3.050831|    1.830712|    0.160754|
|         224|           0|   -2.368695|    0.334729|    0.217860|    3.040586|    1.826375|    0.160177|
|         225|           0|   -2.373580|    0.329000|    0.212696|    3.032807|    1.822142|    0.159713|
|         226|           0|   -2.377471|    0.321818|    0.205220|    3.027512|    1.818076|    0.159367|
|         227|           0|   -2.380629|    0.313068|    0.195385|    3.024459|    1.814241|    0.159145|
|         228|           0|   -2.383187|    0.302674|    0.183346|    3.023460|    1.810695|    0.159048|
|         229|           0|   -2.385288|    0.290527|    0.169157|    3.024165|    1.807490|    0.159077|
|         230|           0|   -2.387246|    0.276671|    0.153043|    3.025949|    1.804671|    0.159229|
+-----------------------------------------------------------------------+
|        File Writing Summary       |              Filename             |
+-----------------------------------------------------------------------+
|SU2 restart                        |solution_flow.dat                  |
|Paraview                           |flow.vtu                           |
|Paraview surface                   |surface_flow.vtu                   |
+-----------------------------------------------------------------------+

Writing the forces breakdown file (forces_breakdown.dat).
+-------------------------------------------------------------------------------------------------------+
|  Inner_Iter|   Time_Iter|    rms[Rho]|   rms[RhoU]|   rms[RhoV]|   rms[RhoE]|          CL|          CD|
+-------------------------------------------------------------------------------------------------------+
|         231|           0|   -2.389327|    0.261234|    0.135231|    3.028313|    1.802280|    0.159503|
|         232|           0|   -2.391707|    0.244331|    0.116097|    3.030780|    1.800349|    0.159894|
|         233|           0|   -2.394602|    0.226171|    0.096267|    3.032855|    1.798908|    0.160395|
|         234|           0|   -2.398148|    0.206995|    0.076393|    3.034181|    1.797970|    0.160999|
|         235|           0|   -2.402486|    0.187175|    0.057233|    3.034410|    1.797551|    0.161697|
|         236|           0|   -2.407788|    0.167196|    0.039721|    3.033211|    1.797652|    0.162479|
|         237|           0|   -2.413997|    0.147803|    0.024888|    3.030605|    1.798273|    0.163334|
|         238|           0|   -2.421142|    0.129504|    0.013552|    3.026426|    1.799398|    0.164249|
|         239|           0|   -2.429016|    0.113000|    0.006261|    3.020842|    1.801014|    0.165213|
|         240|           0|   -2.437628|    0.098906|    0.003169|    3.013739|    1.803096|    0.166212|
+-----------------------------------------------------------------------+
|        File Writing Summary       |              Filename             |
+-----------------------------------------------------------------------+
|SU2 restart                        |solution_flow.dat                  |
|Paraview                           |flow.vtu                           |
|Paraview surface                   |surface_flow.vtu                   |
+-----------------------------------------------------------------------+

Writing the forces breakdown file (forces_breakdown.dat).
+-------------------------------------------------------------------------------------------------------+
|  Inner_Iter|   Time_Iter|    rms[Rho]|   rms[RhoU]|   rms[RhoV]|   rms[RhoE]|          CL|          CD|
+-------------------------------------------------------------------------------------------------------+
|         241|           0|   -2.446724|    0.087752|    0.004039|    3.005329|    1.805613|    0.167232|
|         242|           0|   -2.456200|    0.079862|    0.008227|    2.995685|    1.808531|    0.168259|
|         243|           0|   -2.465994|    0.075324|    0.014984|    2.984851|    1.811811|    0.169281|
|         244|           0|   -2.475986|    0.073831|    0.023392|    2.972910|    1.815406|    0.170283|
|         245|           0|   -2.485992|    0.074844|    0.032632|    2.960089|    1.819270|    0.171252|
|         246|           0|   -2.495642|    0.077905|    0.041866|    2.946897|    1.823354|    0.172177|
|         247|           0|   -2.504696|    0.082267|    0.050482|    2.933755|    1.827604|    0.173045|
|         248|           0|   -2.513218|    0.087306|    0.057972|    2.920757|    1.831967|    0.173846|
|         249|           0|   -2.521026|    0.092388|    0.063975|    2.908336|    1.836390|    0.174570|
|         250|           0|   -2.528039|    0.097001|    0.068307|    2.896817|    1.840819|    0.175208|
+-----------------------------------------------------------------------+
|        File Writing Summary       |              Filename             |
+-----------------------------------------------------------------------+
|SU2 restart                        |solution_flow.dat                  |
|Paraview                           |flow.vtu                           |
|Paraview surface                   |surface_flow.vtu                   |
+-----------------------------------------------------------------------+

Writing the forces breakdown file (forces_breakdown.dat).
+-------------------------------------------------------------------------------------------------------+
|  Inner_Iter|   Time_Iter|    rms[Rho]|   rms[RhoU]|   rms[RhoV]|   rms[RhoE]|          CL|          CD|
+-------------------------------------------------------------------------------------------------------+
|         251|           0|   -2.534199|    0.100805|    0.070874|    2.886579|    1.845201|    0.175753|
|         252|           0|   -2.539630|    0.103525|    0.071622|    2.877752|    1.849487|    0.176199|
|         253|           0|   -2.544356|    0.104966|    0.070499|    2.870562|    1.853627|    0.176541|
|         254|           0|   -2.548491|    0.104975|    0.067549|    2.865020|    1.857577|    0.176777|
|         255|           0|   -2.552232|    0.103531|    0.062826|    2.860977|    1.861293|    0.176903|
|         256|           0|   -2.555757|    0.100636|    0.056409|    2.858230|    1.864738|    0.176920|
|         257|           0|   -2.559232|    0.096307|    0.048435|    2.856503|    1.867880|    0.176830|
|         258|           0|   -2.562885|    0.090657|    0.039079|    2.855408|    1.870689|    0.176633|
|         259|           0|   -2.566794|    0.083838|    0.028593|    2.854717|    1.873142|    0.176335|
|         260|           0|   -2.571112|    0.076077|    0.017245|    2.854113|    1.875223|    0.175940|
+-----------------------------------------------------------------------+
|        File Writing Summary       |              Filename             |
+-----------------------------------------------------------------------+
|SU2 restart                        |solution_flow.dat                  |
|Paraview                           |flow.vtu                           |
|Paraview surface                   |surface_flow.vtu                   |
+-----------------------------------------------------------------------+

Writing the forces breakdown file (forces_breakdown.dat).
+-------------------------------------------------------------------------------------------------------+
|  Inner_Iter|   Time_Iter|    rms[Rho]|   rms[RhoU]|   rms[RhoV]|   rms[RhoE]|          CL|          CD|
+-------------------------------------------------------------------------------------------------------+
|         261|           0|   -2.576063|    0.067623|    0.005355|    2.853164|    1.876917|    0.175456|
|         262|           0|   -2.581807|    0.058693|   -0.006730|    2.851490|    1.878220|    0.174889|
|         263|           0|   -2.588412|    0.049550|   -0.018612|    2.848856|    1.879129|    0.174248|
|         264|           0|   -2.595974|    0.040558|   -0.029880|    2.845010|    1.879650|    0.173544|
|         265|           0|   -2.604617|    0.032101|   -0.040179|    2.839677|    1.879792|    0.172785|
|         266|           0|   -2.614258|    0.024279|   -0.049181|    2.832871|    1.879567|    0.171983|
|         267|           0|   -2.624827|    0.017360|   -0.056673|    2.824559|    1.878995|    0.171148|
|         268|           0|   -2.636340|    0.011524|   -0.062566|    2.814621|    1.878100|    0.170293|
|         269|           0|   -2.648682|    0.006836|   -0.066891|    2.803086|    1.876908|    0.169428|
|         270|           0|   -2.661675|    0.003312|   -0.069821|    2.790079|    1.875450|    0.168565|
+-----------------------------------------------------------------------+
|        File Writing Summary       |              Filename             |
+-----------------------------------------------------------------------+
|SU2 restart                        |solution_flow.dat                  |
|Paraview                           |flow.vtu                           |
|Paraview surface                   |surface_flow.vtu                   |
+-----------------------------------------------------------------------+

Writing the forces breakdown file (forces_breakdown.dat).
+-------------------------------------------------------------------------------------------------------+
|  Inner_Iter|   Time_Iter|    rms[Rho]|   rms[RhoU]|   rms[RhoV]|   rms[RhoE]|          CL|          CD|
+-------------------------------------------------------------------------------------------------------+
|         271|           0|   -2.674955|    0.000821|   -0.071584|    2.775921|    1.873756|    0.167714|
|         272|           0|   -2.688287|   -0.000829|   -0.072503|    2.760791|    1.871864|    0.166888|
|         273|           0|   -2.701482|   -0.001908|   -0.072924|    2.744863|    1.869809|    0.166095|
|         274|           0|   -2.714399|   -0.002700|   -0.073192|    2.728267|    1.867632|    0.165346|
|         275|           0|   -2.726706|   -0.003499|   -0.073640|    2.711507|    1.865370|    0.164651|
|         276|           0|   -2.738250|   -0.004510|   -0.074545|    2.694899|    1.863065|    0.164016|
|         277|           0|   -2.748876|   -0.005989|   -0.076142|    2.678859|    1.860755|    0.163451|
|         278|           0|   -2.758377|   -0.008178|   -0.078615|    2.663912|    1.858479|    0.162960|
|         279|           0|   -2.766690|   -0.011262|   -0.082103|    2.650494|    1.856272|    0.162549|
|         280|           0|   -2.773821|   -0.015373|   -0.086651|    2.638941|    1.854173|    0.162223|
+-----------------------------------------------------------------------+
|        File Writing Summary       |              Filename             |
+-----------------------------------------------------------------------+
|SU2 restart                        |solution_flow.dat                  |
|Paraview                           |flow.vtu                           |
|Paraview surface                   |surface_flow.vtu                   |
+-----------------------------------------------------------------------+

Writing the forces breakdown file (forces_breakdown.dat).
+-------------------------------------------------------------------------------------------------------+
|  Inner_Iter|   Time_Iter|    rms[Rho]|   rms[RhoU]|   rms[RhoV]|   rms[RhoE]|          CL|          CD|
+-------------------------------------------------------------------------------------------------------+
|         281|           0|   -2.779794|   -0.020560|   -0.092325|    2.629548|    1.852211|    0.161984|
|         282|           0|   -2.784687|   -0.027004|   -0.099106|    2.622487|    1.850418|    0.161833|
|         283|           0|   -2.788667|   -0.034805|   -0.106958|    2.617738|    1.848820|    0.161772|
|         284|           0|   -2.791970|   -0.043947|   -0.115771|    2.615019|    1.847442|    0.161800|
|         285|           0|   -2.794787|   -0.054430|   -0.125410|    2.614031|    1.846302|    0.161914|
|         286|           0|   -2.797369|   -0.066206|   -0.135661|    2.614317|    1.845420|    0.162112|
|         287|           0|   -2.799946|   -0.079186|   -0.146284|    2.615386|    1.844806|    0.162391|
|         288|           0|   -2.802709|   -0.093234|   -0.156973|    2.616788|    1.844469|    0.162745|
|         289|           0|   -2.805773|   -0.108196|   -0.167378|    2.618176|    1.844413|    0.163168|
|         290|           0|   -2.809300|   -0.123866|   -0.177180|    2.619163|    1.844641|    0.163654|
+-----------------------------------------------------------------------+
|        File Writing Summary       |              Filename             |
+-----------------------------------------------------------------------+
|SU2 restart                        |solution_flow.dat                  |
|Paraview                           |flow.vtu                           |
|Paraview surface                   |surface_flow.vtu                   |
+-----------------------------------------------------------------------+

Writing the forces breakdown file (forces_breakdown.dat).
+-------------------------------------------------------------------------------------------------------+
|  Inner_Iter|   Time_Iter|    rms[Rho]|   rms[RhoU]|   rms[RhoV]|   rms[RhoE]|          CL|          CD|
+-------------------------------------------------------------------------------------------------------+
|         291|           0|   -2.813443|   -0.139978|   -0.186019|    2.619405|    1.845145|    0.164196|
|         292|           0|   -2.818262|   -0.156227|   -0.193572|    2.618692|    1.845923|    0.164786|
|         293|           0|   -2.823777|   -0.172236|   -0.199581|    2.616882|    1.846963|    0.165415|
|         294|           0|   -2.830024|   -0.187594|   -0.203861|    2.613827|    1.848253|    0.166076|
|         295|           0|   -2.836953|   -0.201871|   -0.206359|    2.609491|    1.849775|    0.166759|
|         296|           0|   -2.844517|   -0.214696|   -0.207130|    2.603852|    1.851511|    0.167455|
|         297|           0|   -2.852597|   -0.225730|   -0.206332|    2.596983|    1.853438|    0.168155|
|         298|           0|   -2.861076|   -0.234657|   -0.204203|    2.588973|    1.855534|    0.168852|
|         299|           0|   -2.869892|   -0.241438|   -0.201045|    2.579857|    1.857772|    0.169535|
|         300|           0|   -2.878894|   -0.246072|   -0.197162|    2.569795|    1.860127|    0.170197|
+-----------------------------------------------------------------------+
|        File Writing Summary       |              Filename             |
+-----------------------------------------------------------------------+
|SU2 restart                        |solution_flow.dat                  |
|Paraview                           |flow.vtu                           |
|Paraview surface                   |surface_flow.vtu                   |
+-----------------------------------------------------------------------+

Writing the forces breakdown file (forces_breakdown.dat).
+-------------------------------------------------------------------------------------------------------+
|  Inner_Iter|   Time_Iter|    rms[Rho]|   rms[RhoU]|   rms[RhoV]|   rms[RhoE]|          CL|          CD|
+-------------------------------------------------------------------------------------------------------+
|         301|           0|   -2.887940|   -0.248715|   -0.192879|    2.558957|    1.862570|    0.170829|
|         302|           0|   -2.896954|   -0.249684|   -0.188488|    2.547454|    1.865076|    0.171427|
|         303|           0|   -2.905702|   -0.249317|   -0.184258|    2.535646|    1.867613|    0.171980|
|         304|           0|   -2.914013|   -0.248013|   -0.180429|    2.523858|    1.870158|    0.172486|
|         305|           0|   -2.921746|   -0.246157|   -0.177182|    2.512443|    1.872680|    0.172936|
|         306|           0|   -2.928914|   -0.244094|   -0.174645|    2.501564|    1.875156|    0.173329|
|         307|           0|   -2.935559|   -0.242139|   -0.172913|    2.491386|    1.877559|    0.173660|
|         308|           0|   -2.941650|   -0.240503|   -0.172046|    2.482195|    1.879866|    0.173926|
|         309|           0|   -2.947218|   -0.239515|   -0.172063|    2.474136|    1.882055|    0.174125|
|         310|           0|   -2.952376|   -0.239255|   -0.172969|    2.467227|    1.884108|    0.174257|
+-----------------------------------------------------------------------+
|        File Writing Summary       |              Filename             |
+-----------------------------------------------------------------------+
|SU2 restart                        |solution_flow.dat                  |
|Paraview                           |flow.vtu                           |
|Paraview surface                   |surface_flow.vtu                   |
+-----------------------------------------------------------------------+

Writing the forces breakdown file (forces_breakdown.dat).
+-------------------------------------------------------------------------------------------------------+
|  Inner_Iter|   Time_Iter|    rms[Rho]|   rms[RhoU]|   rms[RhoV]|   rms[RhoE]|          CL|          CD|
+-------------------------------------------------------------------------------------------------------+
|         311|           0|   -2.957311|   -0.239709|   -0.174722|    2.461357|    1.886007|    0.174321|
|         312|           0|   -2.962144|   -0.240921|   -0.177268|    2.456441|    1.887737|    0.174318|
|         313|           0|   -2.967112|   -0.242873|   -0.180532|    2.452208|    1.889285|    0.174249|
|         314|           0|   -2.972283|   -0.245545|   -0.184425|    2.448543|    1.890644|    0.174119|
|         315|           0|   -2.977790|   -0.248887|   -0.188830|    2.445217|    1.891804|    0.173928|
|         316|           0|   -2.983805|   -0.252809|   -0.193635|    2.441908|    1.892763|    0.173682|
|         317|           0|   -2.990494|   -0.257193|   -0.198737|    2.438295|    1.893517|    0.173385|
|         318|           0|   -2.997942|   -0.261928|   -0.204029|    2.434150|    1.894071|    0.173042|
|         319|           0|   -3.006224|   -0.266887|   -0.209392|    2.429271|    1.894426|    0.172658|
|         320|           0|   -3.015370|   -0.271928|   -0.214734|    2.423507|    1.894590|    0.172240|
+-----------------------------------------------------------------------+
|        File Writing Summary       |              Filename             |
+-----------------------------------------------------------------------+
|SU2 restart                        |solution_flow.dat                  |
|Paraview                           |flow.vtu                           |
|Paraview surface                   |surface_flow.vtu                   |
+-----------------------------------------------------------------------+

Writing the forces breakdown file (forces_breakdown.dat).
+-------------------------------------------------------------------------------------------------------+
|  Inner_Iter|   Time_Iter|    rms[Rho]|   rms[RhoU]|   rms[RhoV]|   rms[RhoE]|          CL|          CD|
+-------------------------------------------------------------------------------------------------------+
|         321|           0|   -3.025333|   -0.276922|   -0.219973|    2.416791|    1.894570|    0.171793|
|         322|           0|   -3.036162|   -0.281750|   -0.225048|    2.408946|    1.894379|    0.171325|
|         323|           0|   -3.047793|   -0.286333|   -0.229924|    2.399932|    1.894028|    0.170841|
|         324|           0|   -3.060227|   -0.290584|   -0.234567|    2.389630|    1.893533|    0.170348|
|         325|           0|   -3.073317|   -0.294435|   -0.238975|    2.378132|    1.892909|    0.169854|
|         326|           0|   -3.086911|   -0.297886|   -0.243160|    2.365498|    1.892175|    0.169364|
|         327|           0|   -3.100890|   -0.300956|   -0.247156|    2.351785|    1.891347|    0.168885|
|         328|           0|   -3.115044|   -0.303710|   -0.251014|    2.337121|    1.890445|    0.168424|
|         329|           0|   -3.129377|   -0.306245|   -0.254791|    2.321355|    1.889487|    0.167984|
|         330|           0|   -3.143466|   -0.308642|   -0.258535|    2.305013|    1.888494|    0.167572|
+-----------------------------------------------------------------------+
|        File Writing Summary       |              Filename             |
+-----------------------------------------------------------------------+
|SU2 restart                        |solution_flow.dat                  |
|Paraview                           |flow.vtu                           |
|Paraview surface                   |surface_flow.vtu                   |
+-----------------------------------------------------------------------+

Writing the forces breakdown file (forces_breakdown.dat).
+-------------------------------------------------------------------------------------------------------+
|  Inner_Iter|   Time_Iter|    rms[Rho]|   rms[RhoU]|   rms[RhoV]|   rms[RhoE]|          CL|          CD|
+-------------------------------------------------------------------------------------------------------+
|         331|           0|   -3.157155|   -0.311016|   -0.262319|    2.288275|    1.887484|    0.167192|
|         332|           0|   -3.170263|   -0.313481|   -0.266201|    2.271404|    1.886476|    0.166850|
|         333|           0|   -3.182587|   -0.316161|   -0.270231|    2.254737|    1.885490|    0.166547|
|         334|           0|   -3.193951|   -0.319169|   -0.274455|    2.238650|    1.884543|    0.166288|
|         335|           0|   -3.204215|   -0.322605|   -0.278904|    2.223551|    1.883649|    0.166075|
|         336|           0|   -3.213313|   -0.326556|   -0.283592|    2.209790|    1.882826|    0.165909|
|         337|           0|   -3.221197|   -0.331088|   -0.288516|    2.197730|    1.882087|    0.165792|
|         338|           0|   -3.227926|   -0.336257|   -0.293656|    2.187604|    1.881445|    0.165725|
|         339|           0|   -3.233549|   -0.342108|   -0.298981|    2.179585|    1.880909|    0.165706|
|         340|           0|   -3.238195|   -0.348658|   -0.304441|    2.173678|    1.880490|    0.165735|
+-----------------------------------------------------------------------+
|        File Writing Summary       |              Filename             |
+-----------------------------------------------------------------------+
|SU2 restart                        |solution_flow.dat                  |
|Paraview                           |flow.vtu                           |
|Paraview surface                   |surface_flow.vtu                   |
+-----------------------------------------------------------------------+

Writing the forces breakdown file (forces_breakdown.dat).
+-------------------------------------------------------------------------------------------------------+
|  Inner_Iter|   Time_Iter|    rms[Rho]|   rms[RhoU]|   rms[RhoV]|   rms[RhoE]|          CL|          CD|
+-------------------------------------------------------------------------------------------------------+
|         341|           0|   -3.242026|   -0.355898|   -0.309960|    2.169758|    1.880193|    0.165812|
|         342|           0|   -3.245247|   -0.363802|   -0.315474|    2.167545|    1.880027|    0.165934|
|         343|           0|   -3.248064|   -0.372327|   -0.320913|    2.166700|    1.879992|    0.166098|
|         344|           0|   -3.250693|   -0.381411|   -0.326195|    2.166810|    1.880091|    0.166301|
|         345|           0|   -3.253353|   -0.390985|   -0.331236|    2.167442|    1.880323|    0.166541|
|         346|           0|   -3.256226|   -0.400943|   -0.335956|    2.168211|    1.880688|    0.166813|
|         347|           0|   -3.259341|   -0.411163|   -0.340281|    2.168912|    1.881180|    0.167113|
|         348|           0|   -3.262798|   -0.421508|   -0.344152|    2.169270|    1.881796|    0.167438|
|         349|           0|   -3.266677|   -0.431827|   -0.347536|    2.169050|    1.882527|    0.167782|
[...]
|         905|           0|   -4.368026|   -1.902737|   -1.941005|    1.113876|    1.946310|    0.172006|
|         906|           0|   -4.276692|   -1.536671|   -1.873493|    1.245664|    1.946317|    0.172006|
|         907|           0|   -4.224658|   -1.338170|   -1.788165|    1.325600|    1.946323|    0.172006|
|         908|           0|   -4.217455|   -1.238845|   -1.722668|    1.352584|    1.946328|    0.172006|
|         909|           0|   -4.249934|   -1.203806|   -1.690270|    1.332829|    1.946334|    0.172006|
|         910|           0|   -4.307150|   -1.214530|   -1.692387|    1.276365|    1.946341|    0.172007|
+-----------------------------------------------------------------------+
|        File Writing Summary       |              Filename             |
+-----------------------------------------------------------------------+
|SU2 restart                        |solution_flow.dat                  |
|Paraview                           |flow.vtu                           |
|Paraview surface                   |surface_flow.vtu                   |
+-----------------------------------------------------------------------+

Writing the forces breakdown file (forces_breakdown.dat).
+-------------------------------------------------------------------------------------------------------+
|  Inner_Iter|   Time_Iter|    rms[Rho]|   rms[RhoU]|   rms[RhoV]|   rms[RhoE]|          CL|          CD|
+-------------------------------------------------------------------------------------------------------+
|         911|           0|   -4.367278|   -1.260735|   -1.727756|    1.194377|    1.946346|    0.172006|
|         912|           0|   -4.407259|   -1.338816|   -1.792929|    1.102432|    1.946352|    0.172007|
|         913|           0|   -4.412283|   -1.450510|   -1.874688|    1.035136|    1.946358|    0.172007|
|         914|           0|   -4.383438|   -1.600591|   -1.937860|    1.039616|    1.946363|    0.172007|
|         915|           0|   -4.338273|   -1.776671|   -1.944667|    1.103131|    1.946369|    0.172008|
|         916|           0|   -4.288552|   -1.815619|   -1.905636|    1.183860|    1.946374|    0.172008|
|         917|           0|   -4.238910|   -1.615718|   -1.849183|    1.263899|    1.946379|    0.172008|
|         918|           0|   -4.184493|   -1.397418|   -1.782248|    1.346289|    1.946385|    0.172008|
|         919|           0|   -4.121276|   -1.211648|   -1.702955|    1.434074|    1.946391|    0.172008|
|         920|           0|   -4.115094|   -1.117294|   -1.654141|    1.459645|    1.946396|    0.172008|
+-----------------------------------------------------------------------+
|        File Writing Summary       |              Filename             |
+-----------------------------------------------------------------------+
|SU2 restart                        |solution_flow.dat                  |
|Paraview                           |flow.vtu                           |
|Paraview surface                   |surface_flow.vtu                   |
+-----------------------------------------------------------------------+

Writing the forces breakdown file (forces_breakdown.dat).
+-------------------------------------------------------------------------------------------------------+
|  Inner_Iter|   Time_Iter|    rms[Rho]|   rms[RhoU]|   rms[RhoV]|   rms[RhoE]|          CL|          CD|
+-------------------------------------------------------------------------------------------------------+
|         921|           0|   -4.303129|   -1.223328|   -1.722159|    1.278377|    1.946402|    0.172008|
|         922|           0|   -4.415029|   -1.328911|   -1.792122|    1.126448|    1.946408|    0.172008|
|         923|           0|   -4.433856|   -1.431970|   -1.854360|    1.040895|    1.946413|    0.172008|
|         924|           0|   -4.423686|   -1.530534|   -1.905554|    1.011996|    1.946418|    0.172009|
|         925|           0|   -4.424197|   -1.621443|   -1.944571|    0.998405|    1.946423|    0.172008|
|         926|           0|   -4.443181|   -1.699394|   -1.971329|    0.977422|    1.946428|    0.172009|
|         927|           0|   -4.480305|   -1.758704|   -1.987554|    0.942444|    1.946434|    0.172009|
|         928|           0|   -4.453219|   -1.967251|   -1.999766|    0.991096|    1.946440|    0.172010|
|         929|           0|   -4.344338|   -1.805590|   -1.966196|    1.148588|    1.946445|    0.172010|
|         930|           0|   -4.261304|   -1.479283|   -1.877603|    1.268714|    1.946450|    0.172010|
+-----------------------------------------------------------------------+
|        File Writing Summary       |              Filename             |
+-----------------------------------------------------------------------+
|SU2 restart                        |solution_flow.dat                  |
|Paraview                           |flow.vtu                           |
|Paraview surface                   |surface_flow.vtu                   |
+-----------------------------------------------------------------------+

Writing the forces breakdown file (forces_breakdown.dat).
+-------------------------------------------------------------------------------------------------------+
|  Inner_Iter|   Time_Iter|    rms[Rho]|   rms[RhoU]|   rms[RhoV]|   rms[RhoE]|          CL|          CD|
+-------------------------------------------------------------------------------------------------------+
|         931|           0|   -4.219994|   -1.308813|   -1.786179|    1.335656|    1.946456|    0.172011|
|         932|           0|   -4.223100|   -1.226925|   -1.723975|    1.350751|    1.946459|    0.172010|
|         933|           0|   -4.262980|   -1.204027|   -1.698330|    1.321403|    1.946463|    0.172010|
|         934|           0|   -4.323101|   -1.223833|   -1.708687|    1.257824|    1.946469|    0.172011|
|         935|           0|   -4.380760|   -1.277778|   -1.753498|    1.171454|    1.946474|    0.172011|
|         936|           0|   -4.413625|   -1.363738|   -1.828686|    1.080754|    1.946479|    0.172011|
|         937|           0|   -4.409287|   -1.484672|   -1.917156|    1.027492|    1.946483|    0.172011|
|         938|           0|   -4.374608|   -1.645595|   -1.975193|    1.050069|    1.946489|    0.172012|
|         939|           0|   -4.327538|   -1.817197|   -1.966873|    1.120910|    1.946494|    0.172012|
|         940|           0|   -4.277485|   -1.785746|   -1.916256|    1.202403|    1.946498|    0.172012|
+-----------------------------------------------------------------------+
|        File Writing Summary       |              Filename             |
+-----------------------------------------------------------------------+
|SU2 restart                        |solution_flow.dat                  |
|Paraview                           |flow.vtu                           |
|Paraview surface                   |surface_flow.vtu                   |
+-----------------------------------------------------------------------+

Writing the forces breakdown file (forces_breakdown.dat).
+-------------------------------------------------------------------------------------------------------+
|  Inner_Iter|   Time_Iter|    rms[Rho]|   rms[RhoU]|   rms[RhoV]|   rms[RhoE]|          CL|          CD|
+-------------------------------------------------------------------------------------------------------+
|         941|           0|   -4.227483|   -1.563201|   -1.851772|    1.282310|    1.946502|    0.172012|
|         942|           0|   -4.170982|   -1.351048|   -1.777215|    1.366112|    1.946507|    0.172012|
|         943|           0|   -4.106042|   -1.172746|   -1.691474|    1.454587|    1.946512|    0.172012|
|         944|           0|   -4.160343|   -1.141251|   -1.677840|    1.418241|    1.946517|    0.172013|
|         945|           0|   -4.338532|   -1.247432|   -1.750143|    1.239544|    1.946522|    0.172013|
|         946|           0|   -4.427379|   -1.352777|   -1.822752|    1.099484|    1.946527|    0.172013|
|         947|           0|   -4.433882|   -1.455326|   -1.887448|    1.029131|    1.946531|    0.172013|
|         948|           0|   -4.423937|   -1.553005|   -1.941047|    1.007010|    1.946535|    0.172013|
|         949|           0|   -4.428308|   -1.642206|   -1.981876|    0.992956|    1.946539|    0.172013|
|         950|           0|   -4.451262|   -1.717205|   -2.009488|    0.969315|    1.946544|    0.172014|
+-----------------------------------------------------------------------+
|        File Writing Summary       |              Filename             |
+-----------------------------------------------------------------------+
|SU2 restart                        |solution_flow.dat                  |
|Paraview                           |flow.vtu                           |
|Paraview surface                   |surface_flow.vtu                   |
+-----------------------------------------------------------------------+

Writing the forces breakdown file (forces_breakdown.dat).
+-------------------------------------------------------------------------------------------------------+
|  Inner_Iter|   Time_Iter|    rms[Rho]|   rms[RhoU]|   rms[RhoV]|   rms[RhoE]|          CL|          CD|
+-------------------------------------------------------------------------------------------------------+
|         951|           0|   -4.491528|   -1.772804|   -2.025882|    0.931805|    1.946549|    0.172014|
|         952|           0|   -4.427956|   -2.041790|   -2.034721|    1.027168|    1.946553|    0.172014|
|         953|           0|   -4.322045|   -1.715749|   -1.976703|    1.180448|    1.946557|    0.172014|
|         954|           0|   -4.247350|   -1.430787|   -1.871866|    1.289251|    1.946562|    0.172014|
|         955|           0|   -4.216124|   -1.283707|   -1.779156|    1.344207|    1.946566|    0.172015|
|         956|           0|   -4.228517|   -1.216923|   -1.722220|    1.348523|    1.946569|    0.172014|
|         957|           0|   -4.274754|   -1.204778|   -1.703871|    1.310479|    1.946573|    0.172014|
|         958|           0|   -4.336503|   -1.232841|   -1.722484|    1.240666|    1.946578|    0.172015|
|         959|           0|   -4.390357|   -1.294090|   -1.776472|    1.151170|    1.946582|    0.172015|
|         960|           0|   -4.415608|   -1.387713|   -1.860828|    1.064043|    1.946587|    0.172015|
+-----------------------------------------------------------------------+
|        File Writing Summary       |              Filename             |
+-----------------------------------------------------------------------+
|SU2 restart                        |solution_flow.dat                  |
|Paraview                           |flow.vtu                           |
|Paraview surface                   |surface_flow.vtu                   |
+-----------------------------------------------------------------------+

Writing the forces breakdown file (forces_breakdown.dat).
+-------------------------------------------------------------------------------------------------------+
|  Inner_Iter|   Time_Iter|    rms[Rho]|   rms[RhoU]|   rms[RhoV]|   rms[RhoE]|          CL|          CD|
+-------------------------------------------------------------------------------------------------------+
|         961|           0|   -4.403395|   -1.517706|   -1.953373|    1.026035|    1.946592|    0.172015|
|         962|           0|   -4.364570|   -1.688117|   -2.001881|    1.063546|    1.946597|    0.172016|
|         963|           0|   -4.315981|   -1.842055|   -1.977987|    1.139451|    1.946600|    0.172015|
|         964|           0|   -4.266464|   -1.743543|   -1.918048|    1.220317|    1.946604|    0.172015|
|         965|           0|   -4.215438|   -1.513442|   -1.847317|    1.300720|    1.946608|    0.172015|
|         966|           0|   -4.156785|   -1.308428|   -1.766818|    1.385920|    1.946612|    0.172015|
|         967|           0|   -4.090806|   -1.137236|   -1.676690|    1.474437|    1.946616|    0.172016|
|         968|           0|   -4.206027|   -1.166067|   -1.699755|    1.375486|    1.946620|    0.172016|
|         969|           0|   -4.368460|   -1.272368|   -1.775893|    1.202121|    1.946623|    0.172016|
|         970|           0|   -4.433141|   -1.377405|   -1.850624|    1.077005|    1.946628|    0.172017|
+-----------------------------------------------------------------------+
|        File Writing Summary       |              Filename             |
+-----------------------------------------------------------------------+
|SU2 restart                        |solution_flow.dat                  |
|Paraview                           |flow.vtu                           |
|Paraview surface                   |surface_flow.vtu                   |
+-----------------------------------------------------------------------+

Writing the forces breakdown file (forces_breakdown.dat).
+-------------------------------------------------------------------------------------------------------+
|  Inner_Iter|   Time_Iter|    rms[Rho]|   rms[RhoU]|   rms[RhoV]|   rms[RhoE]|          CL|          CD|
+-------------------------------------------------------------------------------------------------------+
|         971|           0|   -4.430758|   -1.479310|   -1.917149|    1.021666|    1.946632|    0.172017|
|         972|           0|   -4.423104|   -1.575825|   -1.972401|    1.004081|    1.946635|    0.172017|
|         973|           0|   -4.431810|   -1.662818|   -2.014219|    0.988663|    1.946638|    0.172017|
|         974|           0|   -4.459226|   -1.734244|   -2.041949|    0.961601|    1.946642|    0.172017|
|         975|           0|   -4.502432|   -1.785633|   -2.058010|    0.921802|    1.946646|    0.172017|
|         976|           0|   -4.403359|   -2.049768|   -2.058412|    1.062261|    1.946649|    0.172017|
|         977|           0|   -4.301329|   -1.638792|   -1.975112|    1.209488|    1.946652|    0.172017|
|         978|           0|   -4.234962|   -1.389364|   -1.859805|    1.307395|    1.946656|    0.172017|
|         979|           0|   -4.213189|   -1.262075|   -1.769195|    1.351275|    1.946660|    0.172017|
|         980|           0|   -4.234000|   -1.208503|   -1.718553|    1.345732|    1.946663|    0.172017|
+-----------------------------------------------------------------------+
|        File Writing Summary       |              Filename             |
+-----------------------------------------------------------------------+
|SU2 restart                        |solution_flow.dat                  |
|Paraview                           |flow.vtu                           |
|Paraview surface                   |surface_flow.vtu                   |
+-----------------------------------------------------------------------+

Writing the forces breakdown file (forces_breakdown.dat).
+-------------------------------------------------------------------------------------------------------+
|  Inner_Iter|   Time_Iter|    rms[Rho]|   rms[RhoU]|   rms[RhoV]|   rms[RhoE]|          CL|          CD|
+-------------------------------------------------------------------------------------------------------+
|         981|           0|   -4.285400|   -1.205929|   -1.707601|    1.299970|    1.946665|    0.172017|
|         982|           0|   -4.347479|   -1.241531|   -1.734229|    1.224845|    1.946669|    0.172017|
|         983|           0|   -4.396885|   -1.309682|   -1.796906|    1.133222|    1.946672|    0.172017|
|         984|           0|   -4.414212|   -1.410726|   -1.889181|    1.052006|    1.946676|    0.172017|
|         985|           0|   -4.395041|   -1.549446|   -1.982451|    1.030092|    1.946680|    0.172018|
|         986|           0|   -4.353352|   -1.726953|   -2.017616|    1.079325|    1.946684|    0.172018|
|         987|           0|   -4.304207|   -1.848755|   -1.979667|    1.157838|    1.946686|    0.172018|
|         988|           0|   -4.255023|   -1.696921|   -1.913029|    1.238044|    1.946689|    0.172017|
|         989|           0|   -4.202887|   -1.467475|   -1.837801|    1.319005|    1.946691|    0.172017|
|         990|           0|   -4.142373|   -1.269425|   -1.752894|    1.405340|    1.946695|    0.172017|
+-----------------------------------------------------------------------+
|        File Writing Summary       |              Filename             |
+-----------------------------------------------------------------------+
|SU2 restart                        |solution_flow.dat                  |
|Paraview                           |flow.vtu                           |
|Paraview surface                   |surface_flow.vtu                   |
+-----------------------------------------------------------------------+

Writing the forces breakdown file (forces_breakdown.dat).
+-------------------------------------------------------------------------------------------------------+
|  Inner_Iter|   Time_Iter|    rms[Rho]|   rms[RhoU]|   rms[RhoV]|   rms[RhoE]|          CL|          CD|
+-------------------------------------------------------------------------------------------------------+
|         991|           0|   -4.075989|   -1.104939|   -1.660117|    1.493306|    1.946698|    0.172018|
|         992|           0|   -4.250322|   -1.191687|   -1.719920|    1.332191|    1.946701|    0.172018|
|         993|           0|   -4.391112|   -1.298097|   -1.799393|    1.167367|    1.946704|    0.172018|
|         994|           0|   -4.432494|   -1.402773|   -1.875676|    1.060171|    1.946707|    0.172018|
|         995|           0|   -4.425238|   -1.503906|   -1.943387|    1.018196|    1.946711|    0.172019|
|         996|           0|   -4.420846|   -1.598937|   -1.999528|    1.003725|    1.946712|    0.172018|
|         997|           0|   -4.434038|   -1.683164|   -2.041515|    0.986444|    1.946715|    0.172019|
|         998|           0|   -4.466349|   -1.750437|   -2.068774|    0.955229|    1.946719|    0.172019|
|         999|           0|   -4.487755|   -1.856003|   -2.087516|    0.942488|    1.946722|    0.172019|

----------------------------- Solver Exit -------------------------------

Maximum number of iterations reached (ITER = 1000) before convergence.
+-----------------------------------------------------------------------+
|      Convergence Field     |     Value    |   Criterion  |  Converged |
+-----------------------------------------------------------------------+
|                  Cauchy[CD]|   1.43607e-06|       < 1e-10|          No|
+-----------------------------------------------------------------------+
-------------------------------------------------------------------------
+-----------------------------------------------------------------------+
|        File Writing Summary       |              Filename             |
+-----------------------------------------------------------------------+
|SU2 restart                        |solution_flow.dat                  |
|Paraview                           |flow.vtu                           |
|Paraview surface                   |surface_flow.vtu                   |
+-----------------------------------------------------------------------+

Writing the forces breakdown file (forces_breakdown.dat).

------------------------- Solver Postprocessing -------------------------
Deleted CNumerics container.
Deleted CIntegration container.
Deleted CSolver container.
Deleted CIteration container.
Deleted CInterpolator container.
Deleted CInterface container.
Deleted CGeometry container.
Deleted CFreeFormDefBox class.
Deleted CSurfaceMovement class.
Deleted CVolumetricMovement class.
Deleted CConfig container.
Deleted nInst container.
Deleted COutput class.
-------------------------------------------------------------------------

------------------------- Exit Success (SU2_CFD) ------------------------

