
-------------------------------------------------------------------------
|    ___ _   _ ___                                                      |
|   / __| | | |_  )   Release 7.0.3 "Blackbird"                         |
|   \__ \ |_| |/ /                                                      |
|   |___/\___//___|   Suite (Computational Fluid Dynamics Code)         |
|                                                                       |
-------------------------------------------------------------------------
| SU2 Project Website: https://su2code.github.io                        |
|                                                                       |
| The SU2 Project is maintained by the SU2 Foundation                   |
| (http://su2foundation.org)                                            |
-------------------------------------------------------------------------
| Copyright 2012-2020, SU2 Contributors                                 |
|                                                                       |
| SU2 is free software; you can redistribute it and/or                  |
| modify it under the terms of the GNU Lesser General Public            |
| License as published by the Free Software Foundation; either          |
| version 2.1 of the License, or (at your option) any later version.    |
|                                                                       |
| SU2 is distributed in the hope that it will be useful,                |
| but WITHOUT ANY WARRANTY; without even the implied warranty of        |
| MERCHANTABILITY or FITNESS FOR A PARTICULAR PURPOSE. See the GNU      |
| Lesser General Public License for more details.                       |
|                                                                       |
| You should have received a copy of the GNU Lesser General Public      |
| License along with SU2. If not, see <http://www.gnu.org/licenses/>.   |
-------------------------------------------------------------------------

Parsing config file for zone 0

----------------- Physical Case Definition ( Zone 0 ) -------------------
Compressible Euler equations.
Mach number: 0.294.
Angle of attack (AoA): 10 deg, and angle of sideslip (AoS): 0 deg.
No restart solution, use the values at infinity (freestream).
Dimensional simulation.
The reference area is 10 m^2.
The semi-span will be computed using the max y(3D) value.
The reference length is 1 m.
Reference origin for moment evaluation is (0, 0, 0).
Surface(s) where the force coefficients are evaluated: Wing_1.

Surface(s) where the objective function is evaluated: airfoil.
Surface(s) plotted in the output file: Wing_1.
Surface(s) to be analyzed in detail: airfoil.
Surface(s) affected by the design variables: Wing_1.
Input mesh file name: deformed.su2

--------------- Space Numerical Integration ( Zone 0 ) ------------------
Roe (with entropy fix = 0) solver for the flow inviscid terms.
Roe with DDES's FD low-dissipation function.
Second order integration in space, with slope limiter.
Venkatakrishnan slope-limiting method, with constant: 0.05. 
The reference element size is: 1. 
Gradient for upwind reconstruction: Green-Gauss.
Gradient for viscous and source terms: Green-Gauss.

--------------- Time Numerical Integration  ( Zone 0 ) ------------------
Local time stepping (steady state simulation).
Euler implicit method for the flow equations.
FGMRES is used for solving the linear system.
Using a ILU(0) preconditioning.
Convergence criteria of the linear solver: 1e-06.
Max number of linear iterations: 5.
V Multigrid Cycle, with 3 multigrid levels.
Damping factor for the residual restriction: 0.75.
Damping factor for the correction prolongation: 0.75.
No CFL adaptation.
+-------------------------------------------+
|  MG Level| Presmooth|PostSmooth|CorrectSmo|
+-------------------------------------------+
|         0|         1|         0|         0|
|         1|         2|         0|         0|
|         2|         3|         0|         0|
|         3|         3|         0|         0|
+-------------------------------------------+
Courant-Friedrichs-Lewy number:        1

------------------ Convergence Criteria  ( Zone 0 ) ---------------------
Maximum number of solver subiterations: 1000.
Begin convergence monitoring at iteration 10.
Residual minimum value: 1e-8.
Cauchy series min. value: 1e-10.
Number of Cauchy elements: 100.
Begin windowed time average at iteration 15.

-------------------- Output Information ( Zone 0 ) ----------------------
Writing solution files every 10 iterations.
Writing the convergence history file every 1 inner iterations.
Writing the screen convergence history every 1 inner iterations.
The tabular file format is Tecplot (.dat).
Convergence history file name: history.
Forces breakdown file name: forces_breakdown.dat.
Surface file name: surface_flow.
Volume file name: flow.
Restart file name: solution_flow.dat.

------------- Config File Boundary Information ( Zone 0 ) ---------------
+-----------------------------------------------------------------------+
|                        Marker Type|                        Marker Name|
+-----------------------------------------------------------------------+
|                         Euler wall|                             Wing_1|
+-----------------------------------------------------------------------+
|                          Far-field|                           Farfield|
+-----------------------------------------------------------------------+
|                     Symmetry plane|                                  0|
+-----------------------------------------------------------------------+
|           Deformable mesh boundary|                            airfoil|
+-----------------------------------------------------------------------+

-------------------- Output Preprocessing ( Zone 0 ) --------------------
Screen output fields: INNER_ITER, TIME_ITER, RMS_DENSITY, RMS_MOMENTUM-X, RMS_MOMENTUM-Y, RMS_ENERGY, LIFT, DRAG
  Info: Ignoring the following history output groups:
  TIME_ITER
History output group(s): ITER, RMS_RES, AERO_COEFF
Warning: No (valid) fields chosen for convergence monitoring. Convergence monitoring inactive.
Warning: No (valid) fields chosen for time convergence monitoring. Time convergence monitoring inactive.
Volume output fields: COORDINATES, SOLUTION, PRIMITIVE

------------------- Geometry Preprocessing ( Zone 0 ) -------------------
Three dimensional problem.
142678 grid points before partitioning.
739205 volume elements before partitioning.
2 surface markers.
99234 boundary elements in index 0 (Marker = Wing_1).
1280 boundary elements in index 1 (Marker = Farfield).
Executing the partitioning functions.
Building the graph adjacency structure.
Calling ParMETIS... graph partitioning complete (18884 edge cuts).
Distributing ParMETIS coloring.
Rebalancing vertices.
Rebalancing volume element connectivity.
Rebalancing markers and surface elements.
153425 vertices including ghost points. 
767118 interior elements including halo cells. 
767118 tetrahedra.
Establishing MPI communication patterns.
Setting point connectivity.
Renumbering points (Reverse Cuthill McKee Ordering).
Recomputing point connectivity.
Setting element connectivity.
Checking the numerical grid orientation.
Identifying edges and vertices.
Computing centers of gravity.
Setting the control volume structure.
Volume of the computational grid: 587310.
Searching for the closest normal neighbors to the surfaces.
Storing a mapping from global to local point index.
Compute the surface curvature.
Max K: 952.879. Mean K: 12.8944. Standard deviation K: 55.0498.
Checking for periodicity.
Computing mesh quality statistics for the dual control volumes.
+--------------------------------------------------------------+
|           Mesh Quality Metric|        Minimum|        Maximum|
+--------------------------------------------------------------+
|    Orthogonality Angle (deg.)|        46.8058|        85.7531|
|     CV Face Area Aspect Ratio|        1.42566|        38.0636|
|           CV Sub-Volume Ratio|        1.02919|        141.905|
+--------------------------------------------------------------+
Setting the multigrid structure.
+-------------------------------------------+
|  MG Level|       CVs|Aggl. Rate|       CFL|
+-------------------------------------------+
|         0|    153425|    1/1.00|         1|
|         1|     27876|     1/5.5|  0.849577|
|         2|      6802|     1/4.1|  0.796335|
Finding max control volume width.
Communicating number of neighbors.
Semi-span length = 5.01397 m.
Wetted area = 42.2884 m^2.
Area projection in the x-plane = 3.06237 m^2, y-plane = 1.37271 m^2, z-plane = 20.1613 m^2.
Max. coordinate in the x-direction = 1.02183 m, y-direction = 5.01397 m, z-direction = 0.436247 m.
Min. coordinate in the x-direction = -1.01861 m, y-direction = -5.0141 m, z-direction = -0.120664 m.
Checking if Euler & Symmetry markers are straight/plane:
Boundary marker Wing_1 is NOT a single plane.
Boundary marker 0 is a single plane.

-------------------- Solver Preprocessing ( Zone 0 ) --------------------
Inviscid flow: Computing density based on free-stream
temperature and pressure using the ideal gas law.
Force coefficients computed using free-stream values.

-- Models:
+------------------------------------------------------------------------------+
|          Viscosity Model|        Conductivity Model|              Fluid Model|
+------------------------------------------------------------------------------+
|                        -|                         -|             STANDARD_AIR|
+------------------------------------------------------------------------------+
-- Fluid properties:
+------------------------------------------------------------------------------+
|                  Name|    Dim. value|    Ref. value|      Unit|Non-dim. value|
+------------------------------------------------------------------------------+
|          Gas Constant|       287.058|             1|  N.m/kg.K|       287.058|
|      Spec. Heat Ratio|             -|             -|         -|           1.4|
+------------------------------------------------------------------------------+
-- Initial and free-stream conditions:
+------------------------------------------------------------------------------+
|                  Name|    Dim. value|    Ref. value|      Unit|Non-dim. value|
+------------------------------------------------------------------------------+
|       Static Pressure|        101325|             1|        Pa|        101325|
|               Density|       1.22498|             1|    kg/m^3|       1.22498|
|           Temperature|        288.15|             1|         K|        288.15|
|          Total Energy|        211794|             1|   m^2/s^2|        211794|
|            Velocity-X|       98.5274|             1|       m/s|       98.5274|
|            Velocity-Y|             0|             1|       m/s|             0|
|            Velocity-Z|        17.373|             1|       m/s|        17.373|
|    Velocity Magnitude|       100.047|             1|       m/s|       100.047|
+------------------------------------------------------------------------------+
|           Mach Number|             -|             -|         -|         0.294|
+------------------------------------------------------------------------------+
Initialize Jacobian structure (Euler). MG level: 0.
Initialize Jacobian structure (Euler). MG level: 1.
Initialize Jacobian structure (Euler). MG level: 2.

------------------- Numerics Preprocessing ( Zone 0 ) -------------------

----------------- Integration Preprocessing ( Zone 0 ) ------------------

------------------- Iteration Preprocessing ( Zone 0 ) ------------------
Euler/Navier-Stokes/RANS fluid iteration.

------------------------------ Begin Solver -----------------------------

Simulation Run using the Single-zone Driver
+-------------------------------------------------------------------------------------------------------+
|  Inner_Iter|   Time_Iter|    rms[Rho]|   rms[RhoU]|   rms[RhoV]|   rms[RhoE]|          CL|          CD|
+-------------------------------------------------------------------------------------------------------+
|           0|           0|   -1.671251|    0.497587|   -0.414194|    3.797849|    2.039091|    0.916414|
|           1|           0|   -1.779289|    0.407345|   -0.154389|    3.690108|    3.551433|    1.582024|
|           2|           0|   -1.782310|    0.438046|    0.039450|    3.688814|    4.606942|    2.030660|
|           3|           0|   -1.728360|    0.522892|    0.156406|    3.743544|    5.286763|    2.299811|
|           4|           0|   -1.665829|    0.618677|    0.251645|    3.806453|    5.667268|    2.425154|
|           5|           0|   -1.607705|    0.715148|    0.343556|    3.865134|    5.817552|    2.440072|
|           6|           0|   -1.554283|    0.809908|    0.436582|    3.919343|    5.796762|    2.374031|
|           7|           0|   -1.504545|    0.901091|    0.530287|    3.969991|    5.654574|    2.252049|
|           8|           0|   -1.458274|    0.987200|    0.623152|    4.017188|    5.432656|    2.095144|
|           9|           0|   -1.415807|    1.067077|    0.713597|    4.060496|    5.164818|    1.920506|
|          10|           0|   -1.377908|    1.140146|    0.800371|    4.099087|    4.875479|    1.740932|
+-----------------------------------------------------------------------+
|        File Writing Summary       |              Filename             |
+-----------------------------------------------------------------------+
|SU2 restart                        |solution_flow.dat                  |
|Paraview                           |flow.vtu                           |
|Paraview surface                   |surface_flow.vtu                   |
+-----------------------------------------------------------------------+

Writing the forces breakdown file (forces_breakdown.dat).
+-------------------------------------------------------------------------------------------------------+
|  Inner_Iter|   Time_Iter|    rms[Rho]|   rms[RhoU]|   rms[RhoV]|   rms[RhoE]|          CL|          CD|
+-------------------------------------------------------------------------------------------------------+
|          11|           0|   -1.345018|    1.206232|    0.882513|    4.132455|    4.580847|    1.564972|
|          12|           0|   -1.317729|    1.265267|    0.959341|    4.159910|    4.291559|    1.398226|
|          13|           0|   -1.296259|    1.317361|    1.030314|    4.181114|    4.013690|    1.243737|
|          14|           0|   -1.280631|    1.362679|    1.095035|    4.195882|    3.749599|    1.102450|
|          15|           0|   -1.270639|    1.401397|    1.153393|    4.204223|    3.499099|    0.973921|
|          16|           0|   -1.265689|    1.433695|    1.205300|    4.206470|    3.260323|    0.856822|
|          17|           0|   -1.264683|    1.459709|    1.250768|    4.203458|    3.030627|    0.749400|
|          18|           0|   -1.265868|    1.479631|    1.289819|    4.196783|    2.807118|    0.649791|
|          19|           0|   -1.266693|    1.493634|    1.322466|    4.189139|    2.587114|    0.556243|
|          20|           0|   -1.264383|    1.501978|    1.348882|    4.184027|    2.368465|    0.467287|
+-----------------------------------------------------------------------+
|        File Writing Summary       |              Filename             |
+-----------------------------------------------------------------------+
|SU2 restart                        |solution_flow.dat                  |
|Paraview                           |flow.vtu                           |
|Paraview surface                   |surface_flow.vtu                   |
+-----------------------------------------------------------------------+

Writing the forces breakdown file (forces_breakdown.dat).
+-------------------------------------------------------------------------------------------------------+
|  Inner_Iter|   Time_Iter|    rms[Rho]|   rms[RhoU]|   rms[RhoV]|   rms[RhoE]|          CL|          CD|
+-------------------------------------------------------------------------------------------------------+
|          21|           0|   -1.256405|    1.504893|    1.369176|    4.185341|    2.149687|    0.381792|
|          22|           0|   -1.241217|    1.502813|    1.383571|    4.196258|    1.930139|    0.299022|
|          23|           0|   -1.219538|    1.496614|    1.392261|    4.217017|    1.709952|    0.218618|
|          24|           0|   -1.193731|    1.486528|    1.395713|    4.244826|    1.490005|    0.140571|
|          25|           0|   -1.166801|    1.473449|    1.394327|    4.275651|    1.271759|    0.065152|
|          26|           0|   -1.141344|    1.458484|    1.388567|    4.305856|    1.057120|   -0.007168|
|          27|           0|   -1.119404|    1.442703|    1.378873|    4.332562|    0.848287|   -0.075795|
|          28|           0|   -1.102080|    1.426921|    1.366193|    4.354215|    0.647547|   -0.140085|
|          29|           0|   -1.089689|    1.411595|    1.350957|    4.370295|    0.457180|   -0.199391|
|          30|           0|   -1.082390|    1.397087|    1.333769|    4.380442|    0.279330|   -0.253118|
+-----------------------------------------------------------------------+
|        File Writing Summary       |              Filename             |
+-----------------------------------------------------------------------+
|SU2 restart                        |solution_flow.dat                  |
|Paraview                           |flow.vtu                           |
|Paraview surface                   |surface_flow.vtu                   |
+-----------------------------------------------------------------------+

Writing the forces breakdown file (forces_breakdown.dat).
+-------------------------------------------------------------------------------------------------------+
|  Inner_Iter|   Time_Iter|    rms[Rho]|   rms[RhoU]|   rms[RhoV]|   rms[RhoE]|          CL|          CD|
+-------------------------------------------------------------------------------------------------------+
|          31|           0|   -1.079194|    1.383599|    1.314852|    4.385554|    0.115968|   -0.300741|
|          32|           0|   -1.078955|    1.371802|    1.294939|    4.386682|   -0.031174|   -0.341840|
|          33|           0|   -1.080211|    1.363042|    1.274329|    4.385314|   -0.160621|   -0.376107|
|          34|           0|   -1.080408|    1.357685|    1.254048|    4.383895|   -0.271165|   -0.403334|
|          35|           0|   -1.077687|    1.356729|    1.234914|    4.384597|   -0.361864|   -0.423413|
|          36|           0|   -1.071649|    1.361397|    1.220538|    4.388330|   -0.432045|   -0.436330|
|          37|           0|   -1.062085|    1.373358|    1.213855|    4.395826|   -0.481278|   -0.442155|
|          38|           0|   -1.050398|    1.392757|    1.219459|    4.405827|   -0.509348|   -0.441019|
|          39|           0|   -1.038056|    1.418149|    1.238909|    4.417154|   -0.516229|   -0.433103|
|          40|           0|   -1.027036|    1.446024|    1.270215|    4.427597|   -0.502088|   -0.418639|
+-----------------------------------------------------------------------+
|        File Writing Summary       |              Filename             |
+-----------------------------------------------------------------------+
|SU2 restart                        |solution_flow.dat                  |
|Paraview                           |flow.vtu                           |
|Paraview surface                   |surface_flow.vtu                   |
+-----------------------------------------------------------------------+

Writing the forces breakdown file (forces_breakdown.dat).
+-------------------------------------------------------------------------------------------------------+
|  Inner_Iter|   Time_Iter|    rms[Rho]|   rms[RhoU]|   rms[RhoV]|   rms[RhoE]|          CL|          CD|
+-------------------------------------------------------------------------------------------------------+
|          41|           0|   -1.019427|    1.473905|    1.310034|    4.434754|   -0.467315|   -0.397908|
|          42|           0|   -1.016394|    1.500621|    1.353471|    4.437296|   -0.412493|   -0.371232|
|          43|           0|   -1.018108|    1.524196|    1.395673|    4.434618|   -0.338393|   -0.338973|
|          44|           0|   -1.024324|    1.542827|    1.433871|    4.426745|   -0.245984|   -0.301540|
|          45|           0|   -1.034947|    1.556375|    1.466263|    4.413755|   -0.136436|   -0.259387|
|          46|           0|   -1.046742|    1.563695|    1.491673|    4.398666|   -0.011124|   -0.213013|
|          47|           0|   -1.058500|    1.565305|    1.509900|    4.383154|    0.128361|   -0.162968|
|          48|           0|   -1.067664|    1.560515|    1.521139|    4.370220|    0.280248|   -0.109848|
|          49|           0|   -1.070995|    1.549722|    1.525466|    4.364209|    0.442615|   -0.054285|
|          50|           0|   -1.067693|    1.532152|    1.522650|    4.366463|    0.613392|    0.003044|
+-----------------------------------------------------------------------+
|        File Writing Summary       |              Filename             |
+-----------------------------------------------------------------------+
|SU2 restart                        |solution_flow.dat                  |
|Paraview                           |flow.vtu                           |
|Paraview surface                   |surface_flow.vtu                   |
+-----------------------------------------------------------------------+

Writing the forces breakdown file (forces_breakdown.dat).
+-------------------------------------------------------------------------------------------------------+
|  Inner_Iter|   Time_Iter|    rms[Rho]|   rms[RhoU]|   rms[RhoV]|   rms[RhoE]|          CL|          CD|
+-------------------------------------------------------------------------------------------------------+
|          51|           0|   -1.058914|    1.508384|    1.513447|    4.376312|    0.790379|    0.061434|
|          52|           0|   -1.046138|    1.479144|    1.497774|    4.392133|    0.971316|    0.120155|
|          53|           0|   -1.031929|    1.446329|    1.477158|    4.410498|    1.153896|    0.178469|
|          54|           0|   -1.018853|    1.412937|    1.452997|    4.428223|    1.335772|    0.235632|
|          55|           0|   -1.008818|    1.382534|    1.427252|    4.442750|    1.514626|    0.290910|
|          56|           0|   -1.002657|    1.358634|    1.402741|    4.453001|    1.688187|    0.343594|
|          57|           0|   -1.000410|    1.346386|    1.383374|    4.458773|    1.854303|    0.393017|
|          58|           0|   -1.003718|    1.345692|    1.373361|    4.458111|    2.010948|    0.438563|
|          59|           0|   -1.011459|    1.355875|    1.374910|    4.452152|    2.156253|    0.479673|
|          60|           0|   -1.023141|    1.373175|    1.386801|    4.441170|    2.288554|    0.515867|
+-----------------------------------------------------------------------+
|        File Writing Summary       |              Filename             |
+-----------------------------------------------------------------------+
|SU2 restart                        |solution_flow.dat                  |
|Paraview                           |flow.vtu                           |
|Paraview surface                   |surface_flow.vtu                   |
+-----------------------------------------------------------------------+

Writing the forces breakdown file (forces_breakdown.dat).
+-------------------------------------------------------------------------------------------------------+
|  Inner_Iter|   Time_Iter|    rms[Rho]|   rms[RhoU]|   rms[RhoV]|   rms[RhoE]|          CL|          CD|
+-------------------------------------------------------------------------------------------------------+
|          61|           0|   -1.038028|    1.394278|    1.405941|    4.425635|    2.406419|    0.546747|
|          62|           0|   -1.054501|    1.416163|    1.428818|    4.406813|    2.508672|    0.572007|
|          63|           0|   -1.071144|    1.436366|    1.452075|    4.385942|    2.594413|    0.591440|
|          64|           0|   -1.086618|    1.454426|    1.473681|    4.364397|    2.663021|    0.604934|
|          65|           0|   -1.101115|    1.469033|    1.492051|    4.342197|    2.714158|    0.612477|
|          66|           0|   -1.112494|    1.479370|    1.506560|    4.322223|    2.747767|    0.614151|
|          67|           0|   -1.119901|    1.485221|    1.516850|    4.306151|    2.764071|    0.610131|
|          68|           0|   -1.124423|    1.487121|    1.522875|    4.293949|    2.763557|    0.600677|
|          69|           0|   -1.126903|    1.485426|    1.524542|    4.285806|    2.746947|    0.586132|
|          70|           0|   -1.128413|    1.479622|    1.521734|    4.281048|    2.715194|    0.566909|
+-----------------------------------------------------------------------+
|        File Writing Summary       |              Filename             |
+-----------------------------------------------------------------------+
|SU2 restart                        |solution_flow.dat                  |
|Paraview                           |flow.vtu                           |
|Paraview surface                   |surface_flow.vtu                   |
+-----------------------------------------------------------------------+

Writing the forces breakdown file (forces_breakdown.dat).
+-------------------------------------------------------------------------------------------------------+
|  Inner_Iter|   Time_Iter|    rms[Rho]|   rms[RhoU]|   rms[RhoV]|   rms[RhoE]|          CL|          CD|
+-------------------------------------------------------------------------------------------------------+
|          71|           0|   -1.129162|    1.469604|    1.514635|    4.279891|    2.669449|    0.543483|
|          72|           0|   -1.130276|    1.455960|    1.503389|    4.280578|    2.611023|    0.516378|
|          73|           0|   -1.131457|    1.438486|    1.488231|    4.283194|    2.541374|    0.486158|
|          74|           0|   -1.132978|    1.417050|    1.469735|    4.286866|    2.462045|    0.453412|
|          75|           0|   -1.135543|    1.391760|    1.448168|    4.290195|    2.374655|    0.418735|
|          76|           0|   -1.139442|    1.363050|    1.424080|    4.292420|    2.280866|    0.382728|
|          77|           0|   -1.144959|    1.331594|    1.398000|    4.292842|    2.182355|    0.345980|
|          78|           0|   -1.152115|    1.298986|    1.371729|    4.291080|    2.080784|    0.309063|
|          79|           0|   -1.161745|    1.266616|    1.346799|    4.286164|    1.977747|    0.272515|
|          80|           0|   -1.172952|    1.236575|    1.324363|    4.279002|    1.874766|    0.236833|
+-----------------------------------------------------------------------+
|        File Writing Summary       |              Filename             |
+-----------------------------------------------------------------------+
|SU2 restart                        |solution_flow.dat                  |
|Paraview                           |flow.vtu                           |
|Paraview surface                   |surface_flow.vtu                   |
+-----------------------------------------------------------------------+

Writing the forces breakdown file (forces_breakdown.dat).
+-------------------------------------------------------------------------------------------------------+
|  Inner_Iter|   Time_Iter|    rms[Rho]|   rms[RhoU]|   rms[RhoV]|   rms[RhoE]|          CL|          CD|
+-------------------------------------------------------------------------------------------------------+
|          81|           0|   -1.186279|    1.211550|    1.305611|    4.268870|    1.773261|    0.202472|
|          82|           0|   -1.200732|    1.193238|    1.291532|    4.256686|    1.674544|    0.169837|
|          83|           0|   -1.216218|    1.183002|    1.282538|    4.242369|    1.579828|    0.139286|
|          84|           0|   -1.232210|    1.181874|    1.278197|    4.226538|    1.490185|    0.111120|
|          85|           0|   -1.248849|    1.188731|    1.277463|    4.208924|    1.406536|    0.085579|
|          86|           0|   -1.265706|    1.201684|    1.279068|    4.189955|    1.329670|    0.062852|
|          87|           0|   -1.282923|    1.217650|    1.281828|    4.169456|    1.260227|    0.043069|
|          88|           0|   -1.300049|    1.233880|    1.284886|    4.147902|    1.198706|    0.026306|
|          89|           0|   -1.316316|    1.250281|    1.287439|    4.126332|    1.145476|    0.012593|
|          90|           0|   -1.331376|    1.264983|    1.289096|    4.105466|    1.100775|    0.001912|
+-----------------------------------------------------------------------+
|        File Writing Summary       |              Filename             |
+-----------------------------------------------------------------------+
|SU2 restart                        |solution_flow.dat                  |
|Paraview                           |flow.vtu                           |
|Paraview surface                   |surface_flow.vtu                   |
+-----------------------------------------------------------------------+

Writing the forces breakdown file (forces_breakdown.dat).
+-------------------------------------------------------------------------------------------------------+
|  Inner_Iter|   Time_Iter|    rms[Rho]|   rms[RhoU]|   rms[RhoV]|   rms[RhoE]|          CL|          CD|
+-------------------------------------------------------------------------------------------------------+
|          91|           0|   -1.344955|    1.277391|    1.289357|    4.085753|    1.064725|   -0.005795|
|          92|           0|   -1.356751|    1.286992|    1.288118|    4.067721|    1.037339|   -0.010619|
|          93|           0|   -1.366691|    1.293972|    1.285334|    4.051913|    1.018525|   -0.012684|
|          94|           0|   -1.375071|    1.298919|    1.281125|    4.038497|    1.008091|   -0.012142|
|          95|           0|   -1.382455|    1.301108|    1.275621|    4.027015|    1.005764|   -0.009172|
|          96|           0|   -1.389953|    1.300558|    1.268796|    4.016402|    1.011188|   -0.003970|
|          97|           0|   -1.397783|    1.298093|    1.260653|    4.006519|    1.023971|    0.003260|
|          98|           0|   -1.406308|    1.293855|    1.251590|    3.996868|    1.043642|    0.012302|
|          99|           0|   -1.415612|    1.287445|    1.241230|    3.987328|    1.069704|    0.022935|
|         100|           0|   -1.426029|    1.279227|    1.229760|    3.977557|    1.101644|    0.034941|
+-----------------------------------------------------------------------+
|        File Writing Summary       |              Filename             |
+-----------------------------------------------------------------------+
|SU2 restart                        |solution_flow.dat                  |
|Paraview                           |flow.vtu                           |
|Paraview surface                   |surface_flow.vtu                   |
+-----------------------------------------------------------------------+

Writing the forces breakdown file (forces_breakdown.dat).
+-------------------------------------------------------------------------------------------------------+
|  Inner_Iter|   Time_Iter|    rms[Rho]|   rms[RhoU]|   rms[RhoV]|   rms[RhoE]|          CL|          CD|
+-------------------------------------------------------------------------------------------------------+
|         101|           0|   -1.437099|    1.268983|    1.217354|    3.968086|    1.138876|    0.048095|
|         102|           0|   -1.448288|    1.256650|    1.204255|    3.959552|    1.180814|    0.062178|
|         103|           0|   -1.459565|    1.242521|    1.190802|    3.951881|    1.226825|    0.076970|
|         104|           0|   -1.471586|    1.227194|    1.177033|    3.944101|    1.276279|    0.092258|
|         105|           0|   -1.483486|    1.209926|    1.162955|    3.937111|    1.328532|    0.107841|
|         106|           0|   -1.495083|    1.190874|    1.148671|    3.930962|    1.382930|    0.123523|
|         107|           0|   -1.506634|    1.170792|    1.134269|    3.925045|    1.438828|    0.139119|
|         108|           0|   -1.518124|    1.150374|    1.119930|    3.919286|    1.495583|    0.154457|
|         109|           0|   -1.529391|    1.130203|    1.105737|    3.913687|    1.552567|    0.169373|
|         110|           0|   -1.540715|    1.111013|    1.091976|    3.907660|    1.609178|    0.183720|
+-----------------------------------------------------------------------+
|        File Writing Summary       |              Filename             |
+-----------------------------------------------------------------------+
|SU2 restart                        |solution_flow.dat                  |
|Paraview                           |flow.vtu                           |
|Paraview surface                   |surface_flow.vtu                   |
+-----------------------------------------------------------------------+

Writing the forces breakdown file (forces_breakdown.dat).
+-------------------------------------------------------------------------------------------------------+
|  Inner_Iter|   Time_Iter|    rms[Rho]|   rms[RhoU]|   rms[RhoV]|   rms[RhoE]|          CL|          CD|
+-------------------------------------------------------------------------------------------------------+
|         111|           0|   -1.551757|    1.093521|    1.078925|    3.901273|    1.664825|    0.197363|
|         112|           0|   -1.562923|    1.078280|    1.067139|    3.894007|    1.718955|    0.210179|
|         113|           0|   -1.573649|    1.066021|    1.057066|    3.886341|    1.771034|    0.222060|
|         114|           0|   -1.583318|    1.057274|    1.048948|    3.878776|    1.820563|    0.232914|
|         115|           0|   -1.592199|    1.052476|    1.043049|    3.870913|    1.867084|    0.242661|
|         116|           0|   -1.600223|    1.051640|    1.039411|    3.862788|    1.910185|    0.251238|
|         117|           0|   -1.607328|    1.054281|    1.038097|    3.854426|    1.949503|    0.258599|
|         118|           0|   -1.613735|    1.059553|    1.038701|    3.845628|    1.984726|    0.264712|
|         119|           0|   -1.619384|    1.067607|    1.041042|    3.836579|    2.015577|    0.269554|
|         120|           0|   -1.624779|    1.077319|    1.044611|    3.826955|    2.041839|    0.273116|
+-----------------------------------------------------------------------+
|        File Writing Summary       |              Filename             |
+-----------------------------------------------------------------------+
|SU2 restart                        |solution_flow.dat                  |
|Paraview                           |flow.vtu                           |
|Paraview surface                   |surface_flow.vtu                   |
+-----------------------------------------------------------------------+

Writing the forces breakdown file (forces_breakdown.dat).
+-------------------------------------------------------------------------------------------------------+
|  Inner_Iter|   Time_Iter|    rms[Rho]|   rms[RhoU]|   rms[RhoV]|   rms[RhoE]|          CL|          CD|
+-------------------------------------------------------------------------------------------------------+
|         121|           0|   -1.629669|    1.087714|    1.049012|    3.817090|    2.063351|    0.275407|
|         122|           0|   -1.634842|    1.097806|    1.053742|    3.806345|    2.079996|    0.276443|
|         123|           0|   -1.640212|    1.107131|    1.058350|    3.795008|    2.091709|    0.276253|
|         124|           0|   -1.645681|    1.115656|    1.062434|    3.783550|    2.098485|    0.274879|
|         125|           0|   -1.651526|    1.122954|    1.065554|    3.771969|    2.100371|    0.272370|
|         126|           0|   -1.657138|    1.127546|    1.067333|    3.760723|    2.097478|    0.268793|
|         127|           0|   -1.662137|    1.129975|    1.067518|    3.750841|    2.089993|    0.264229|
|         128|           0|   -1.666617|    1.129963|    1.065638|    3.742328|    2.078134|    0.258765|
|         129|           0|   -1.670069|    1.127643|    1.061408|    3.736284|    2.062160|    0.252492|
|         130|           0|   -1.672516|    1.122873|    1.054521|    3.732930|    2.042386|    0.245514|
+-----------------------------------------------------------------------+
|        File Writing Summary       |              Filename             |
+-----------------------------------------------------------------------+
|SU2 restart                        |solution_flow.dat                  |
|Paraview                           |flow.vtu                           |
|Paraview surface                   |surface_flow.vtu                   |
+-----------------------------------------------------------------------+

Writing the forces breakdown file (forces_breakdown.dat).
+-------------------------------------------------------------------------------------------------------+
|  Inner_Iter|   Time_Iter|    rms[Rho]|   rms[RhoU]|   rms[RhoV]|   rms[RhoE]|          CL|          CD|
+-------------------------------------------------------------------------------------------------------+
|         131|           0|   -1.673715|    1.115448|    1.044844|    3.732543|    2.019165|    0.237938|
|         132|           0|   -1.673816|    1.105506|    1.032324|    3.734921|    1.992879|    0.229877|
|         133|           0|   -1.672964|    1.093192|    1.016703|    3.739732|    1.963937|    0.221444|
|         134|           0|   -1.671649|    1.078728|    0.997810|    3.746138|    1.932770|    0.212756|
|         135|           0|   -1.669973|    1.062431|    0.975840|    3.753685|    1.899825|    0.203928|
|         136|           0|   -1.668062|    1.044928|    0.950732|    3.761997|    1.865559|    0.195076|
|         137|           0|   -1.667019|    1.024909|    0.922190|    3.769220|    1.830437|    0.186309|
|         138|           0|   -1.666432|    1.003670|    0.890836|    3.775958|    1.794928|    0.177734|
|         139|           0|   -1.666139|    0.982305|    0.857301|    3.782205|    1.759495|    0.169455|
|         140|           0|   -1.666872|    0.961769|    0.822673|    3.787002|    1.724585|    0.161566|
+-----------------------------------------------------------------------+
|        File Writing Summary       |              Filename             |
+-----------------------------------------------------------------------+
|SU2 restart                        |solution_flow.dat                  |
|Paraview                           |flow.vtu                           |
|Paraview surface                   |surface_flow.vtu                   |
+-----------------------------------------------------------------------+

Writing the forces breakdown file (forces_breakdown.dat).
+-------------------------------------------------------------------------------------------------------+
|  Inner_Iter|   Time_Iter|    rms[Rho]|   rms[RhoU]|   rms[RhoV]|   rms[RhoE]|          CL|          CD|
+-------------------------------------------------------------------------------------------------------+
|         141|           0|   -1.669154|    0.942982|    0.788604|    3.789388|    1.690618|    0.154149|
|         142|           0|   -1.672726|    0.927468|    0.757530|    3.789716|    1.657995|    0.147281|
|         143|           0|   -1.677259|    0.916389|    0.732373|    3.788262|    1.627102|    0.141031|
|         144|           0|   -1.683540|    0.910332|    0.716150|    3.784188|    1.598289|    0.135455|
|         145|           0|   -1.690611|    0.909060|    0.710803|    3.778418|    1.571871|    0.130601|
|         146|           0|   -1.698625|    0.912255|    0.716140|    3.770527|    1.548134|    0.126504|
|         147|           0|   -1.707472|    0.918819|    0.730197|    3.760631|    1.527331|    0.123191|
|         148|           0|   -1.716680|    0.928133|    0.750068|    3.749174|    1.509659|    0.120672|
|         149|           0|   -1.726017|    0.938800|    0.772717|    3.736230|    1.495257|    0.118942|
|         150|           0|   -1.735159|    0.949777|    0.795979|    3.721998|    1.484211|    0.117984|
+-----------------------------------------------------------------------+
|        File Writing Summary       |              Filename             |
+-----------------------------------------------------------------------+
|SU2 restart                        |solution_flow.dat                  |
|Paraview                           |flow.vtu                           |
|Paraview surface                   |surface_flow.vtu                   |
+-----------------------------------------------------------------------+

Writing the forces breakdown file (forces_breakdown.dat).
+-------------------------------------------------------------------------------------------------------+
|  Inner_Iter|   Time_Iter|    rms[Rho]|   rms[RhoU]|   rms[RhoV]|   rms[RhoE]|          CL|          CD|
+-------------------------------------------------------------------------------------------------------+
|         151|           0|   -1.743438|    0.960598|    0.818284|    3.707239|    1.476578|    0.117775|
|         152|           0|   -1.750624|    0.970349|    0.838553|    3.692294|    1.472370|    0.118285|
|         153|           0|   -1.755828|    0.978757|    0.856166|    3.678458|    1.471539|    0.119467|
|         154|           0|   -1.759100|    0.985532|    0.870772|    3.666270|    1.474026|    0.121274|
|         155|           0|   -1.760472|    0.990124|    0.882205|    3.656261|    1.479723|    0.123652|
|         156|           0|   -1.760183|    0.992652|    0.890440|    3.648885|    1.488484|    0.126540|
|         157|           0|   -1.758561|    0.993090|    0.895450|    3.644347|    1.500123|    0.129871|
|         158|           0|   -1.756105|    0.991133|    0.897379|    3.642398|    1.514437|    0.133580|
|         159|           0|   -1.753809|    0.986571|    0.896332|    3.642013|    1.531185|    0.137594|
|         160|           0|   -1.751293|    0.979746|    0.892347|    3.643857|    1.550111|    0.141843|
+-----------------------------------------------------------------------+
|        File Writing Summary       |              Filename             |
+-----------------------------------------------------------------------+
|SU2 restart                        |solution_flow.dat                  |
|Paraview                           |flow.vtu                           |
|Paraview surface                   |surface_flow.vtu                   |
+-----------------------------------------------------------------------+

Writing the forces breakdown file (forces_breakdown.dat).
+-------------------------------------------------------------------------------------------------------+
|  Inner_Iter|   Time_Iter|    rms[Rho]|   rms[RhoU]|   rms[RhoV]|   rms[RhoE]|          CL|          CD|
+-------------------------------------------------------------------------------------------------------+
|         161|           0|   -1.749062|    0.970676|    0.885350|    3.647126|    1.570936|    0.146256|
|         162|           0|   -1.747616|    0.959557|    0.875314|    3.650956|    1.593371|    0.150761|
|         163|           0|   -1.746923|    0.946351|    0.862505|    3.655210|    1.617109|    0.155290|
|         164|           0|   -1.747041|    0.930739|    0.847338|    3.659575|    1.641839|    0.159774|
|         165|           0|   -1.748486|    0.913058|    0.829620|    3.663236|    1.667249|    0.164153|
|         166|           0|   -1.751325|    0.893368|    0.809453|    3.665885|    1.693016|    0.168366|
|         167|           0|   -1.755407|    0.872117|    0.786959|    3.667475|    1.718823|    0.172359|
|         168|           0|   -1.760593|    0.849675|    0.762416|    3.668070|    1.744360|    0.176081|
|         169|           0|   -1.766740|    0.826720|    0.736473|    3.667716|    1.769329|    0.179487|
|         170|           0|   -1.773635|    0.803814|    0.709934|    3.666442|    1.793445|    0.182536|
+-----------------------------------------------------------------------+
|        File Writing Summary       |              Filename             |
+-----------------------------------------------------------------------+
|SU2 restart                        |solution_flow.dat                  |
|Paraview                           |flow.vtu                           |
|Paraview surface                   |surface_flow.vtu                   |
+-----------------------------------------------------------------------+

Writing the forces breakdown file (forces_breakdown.dat).
+-------------------------------------------------------------------------------------------------------+
|  Inner_Iter|   Time_Iter|    rms[Rho]|   rms[RhoU]|   rms[RhoV]|   rms[RhoE]|          CL|          CD|
+-------------------------------------------------------------------------------------------------------+
|         171|           0|   -1.781148|    0.781677|    0.683821|    3.664218|    1.816446|    0.185201|
|         172|           0|   -1.789075|    0.761498|    0.659383|    3.661125|    1.838090|    0.187454|
|         173|           0|   -1.797099|    0.744785|    0.638073|    3.657311|    1.858151|    0.189279|
|         174|           0|   -1.805270|    0.732615|    0.621550|    3.652526|    1.876423|    0.190660|
|         175|           0|   -1.813664|    0.725843|    0.611192|    3.646534|    1.892718|    0.191589|
|         176|           0|   -1.822203|    0.724562|    0.607661|    3.639231|    1.906879|    0.192063|
|         177|           0|   -1.830636|    0.728360|    0.610916|    3.630809|    1.918766|    0.192083|
|         178|           0|   -1.838531|    0.736524|    0.619926|    3.621694|    1.928292|    0.191661|
|         179|           0|   -1.845863|    0.747791|    0.633124|    3.611850|    1.935395|    0.190813|
|         180|           0|   -1.852439|    0.761104|    0.648942|    3.601551|    1.940051|    0.189563|
+-----------------------------------------------------------------------+
|        File Writing Summary       |              Filename             |
+-----------------------------------------------------------------------+
|SU2 restart                        |solution_flow.dat                  |
|Paraview                           |flow.vtu                           |
|Paraview surface                   |surface_flow.vtu                   |
+-----------------------------------------------------------------------+

Writing the forces breakdown file (forces_breakdown.dat).
+-------------------------------------------------------------------------------------------------------+
|  Inner_Iter|   Time_Iter|    rms[Rho]|   rms[RhoU]|   rms[RhoV]|   rms[RhoE]|          CL|          CD|
+-------------------------------------------------------------------------------------------------------+
|         181|           0|   -1.858405|    0.774926|    0.665823|    3.590715|    1.942260|    0.187936|
|         182|           0|   -1.863818|    0.788494|    0.682566|    3.579460|    1.942057|    0.185966|
|         183|           0|   -1.868746|    0.801014|    0.698383|    3.567842|    1.939510|    0.183690|
|         184|           0|   -1.873766|    0.811856|    0.712671|    3.555453|    1.934706|    0.181145|
|         185|           0|   -1.878307|    0.821138|    0.724764|    3.543349|    1.927756|    0.178372|
|         186|           0|   -1.882005|    0.828126|    0.734463|    3.532214|    1.918813|    0.175418|
|         187|           0|   -1.884817|    0.832818|    0.741523|    3.522657|    1.908039|    0.172326|
|         188|           0|   -1.886914|    0.835065|    0.745936|    3.514882|    1.895614|    0.169145|
|         189|           0|   -1.888601|    0.834647|    0.747467|    3.508893|    1.881731|    0.165917|
|         190|           0|   -1.889689|    0.831518|    0.746181|    3.505109|    1.866612|    0.162691|
+-----------------------------------------------------------------------+
|        File Writing Summary       |              Filename             |
+-----------------------------------------------------------------------+
|SU2 restart                        |solution_flow.dat                  |
|Paraview                           |flow.vtu                           |
|Paraview surface                   |surface_flow.vtu                   |
+-----------------------------------------------------------------------+

Writing the forces breakdown file (forces_breakdown.dat).
+-------------------------------------------------------------------------------------------------------+
|  Inner_Iter|   Time_Iter|    rms[Rho]|   rms[RhoU]|   rms[RhoV]|   rms[RhoE]|          CL|          CD|
+-------------------------------------------------------------------------------------------------------+
|         191|           0|   -1.890462|    0.825496|    0.741970|    3.503305|    1.850473|    0.159512|
|         192|           0|   -1.891194|    0.816732|    0.734883|    3.503156|    1.833551|    0.156424|
|         193|           0|   -1.892307|    0.805327|    0.724634|    3.504114|    1.816075|    0.153468|
|         194|           0|   -1.893692|    0.791089|    0.711401|    3.506079|    1.798282|    0.150684|
|         195|           0|   -1.895451|    0.773973|    0.695194|    3.508714|    1.780398|    0.148104|
|         196|           0|   -1.897978|    0.754061|    0.676121|    3.511337|    1.762653|    0.145761|
|         197|           0|   -1.900841|    0.731413|    0.654241|    3.514296|    1.745263|    0.143679|
|         198|           0|   -1.904286|    0.706386|    0.629739|    3.517016|    1.728427|    0.141880|
|         199|           0|   -1.908406|    0.679256|    0.603073|    3.519194|    1.712332|    0.140377|
|         200|           0|   -1.913260|    0.650507|    0.574831|    3.520487|    1.697158|    0.139183|
+-----------------------------------------------------------------------+
|        File Writing Summary       |              Filename             |
+-----------------------------------------------------------------------+
|SU2 restart                        |solution_flow.dat                  |
|Paraview                           |flow.vtu                           |
|Paraview surface                   |surface_flow.vtu                   |
+-----------------------------------------------------------------------+

Writing the forces breakdown file (forces_breakdown.dat).
+-------------------------------------------------------------------------------------------------------+
|  Inner_Iter|   Time_Iter|    rms[Rho]|   rms[RhoU]|   rms[RhoV]|   rms[RhoE]|          CL|          CD|
+-------------------------------------------------------------------------------------------------------+
|         201|           0|   -1.918933|    0.620815|    0.546015|    3.520606|    1.683064|    0.138306|
|         202|           0|   -1.925217|    0.591186|    0.518093|    3.519640|    1.670201|    0.137751|
|         203|           0|   -1.932044|    0.563449|    0.492697|    3.517539|    1.658705|    0.137518|
|         204|           0|   -1.939716|    0.539620|    0.471860|    3.513824|    1.648694|    0.137605|
|         205|           0|   -1.948012|    0.521670|    0.457559|    3.508643|    1.640265|    0.138003|
|         206|           0|   -1.956761|    0.511060|    0.451261|    3.502057|    1.633499|    0.138703|
|         207|           0|   -1.965597|    0.508191|    0.453246|    3.494340|    1.628450|    0.139688|
|         208|           0|   -1.974279|    0.512782|    0.462324|    3.485603|    1.625152|    0.140943|
|         209|           0|   -1.983031|    0.523297|    0.476709|    3.475490|    1.623620|    0.142444|
|         210|           0|   -1.991521|    0.537979|    0.494376|    3.464343|    1.623851|    0.144170|
+-----------------------------------------------------------------------+
|        File Writing Summary       |              Filename             |
+-----------------------------------------------------------------------+
|SU2 restart                        |solution_flow.dat                  |
|Paraview                           |flow.vtu                           |
|Paraview surface                   |surface_flow.vtu                   |
+-----------------------------------------------------------------------+

Writing the forces breakdown file (forces_breakdown.dat).
+-------------------------------------------------------------------------------------------------------+
|  Inner_Iter|   Time_Iter|    rms[Rho]|   rms[RhoU]|   rms[RhoV]|   rms[RhoE]|          CL|          CD|
+-------------------------------------------------------------------------------------------------------+
|         211|           0|   -1.999730|    0.554648|    0.513335|    3.452234|    1.625819|    0.146093|
|         212|           0|   -2.007610|    0.571015|    0.531997|    3.439204|    1.629485|    0.148184|
|         213|           0|   -2.014296|    0.586906|    0.549373|    3.426384|    1.634783|    0.150414|
|         214|           0|   -2.019590|    0.601536|    0.564835|    3.414236|    1.641635|    0.152751|
|         215|           0|   -2.023544|    0.614285|    0.577950|    3.403129|    1.649940|    0.155161|
|         216|           0|   -2.026356|    0.624887|    0.588437|    3.393230|    1.659591|    0.157613|
|         217|           0|   -2.028237|    0.632993|    0.596170|    3.384710|    1.670456|    0.160073|
|         218|           0|   -2.029469|    0.638715|    0.601131|    3.377707|    1.682401|    0.162509|
|         219|           0|   -2.030166|    0.641956|    0.603263|    3.372419|    1.695271|    0.164888|
|         220|           0|   -2.030629|    0.642483|    0.602705|    3.368755|    1.708909|    0.167180|
+-----------------------------------------------------------------------+
|        File Writing Summary       |              Filename             |
+-----------------------------------------------------------------------+
|SU2 restart                        |solution_flow.dat                  |
|Paraview                           |flow.vtu                           |
|Paraview surface                   |surface_flow.vtu                   |
+-----------------------------------------------------------------------+

Writing the forces breakdown file (forces_breakdown.dat).
+-------------------------------------------------------------------------------------------------------+
|  Inner_Iter|   Time_Iter|    rms[Rho]|   rms[RhoU]|   rms[RhoV]|   rms[RhoE]|          CL|          CD|
+-------------------------------------------------------------------------------------------------------+
|         221|           0|   -2.031127|    0.640373|    0.599398|    3.366487|    1.723148|    0.169354|
|         222|           0|   -2.031819|    0.635547|    0.593345|    3.365439|    1.737817|    0.171383|
|         223|           0|   -2.032548|    0.627871|    0.584447|    3.365820|    1.752742|    0.173241|
|         224|           0|   -2.033451|    0.617415|    0.572660|    3.367427|    1.767747|    0.174904|
|         225|           0|   -2.034976|    0.604474|    0.558177|    3.369474|    1.782657|    0.176352|
|         226|           0|   -2.037301|    0.589226|    0.541102|    3.371516|    1.797302|    0.177567|
|         227|           0|   -2.040524|    0.571821|    0.521527|    3.373251|    1.811512|    0.178533|
|         228|           0|   -2.044735|    0.552433|    0.499693|    3.374354|    1.825135|    0.179241|
|         229|           0|   -2.049984|    0.531471|    0.475859|    3.374608|    1.838016|    0.179682|
|         230|           0|   -2.056200|    0.509543|    0.450448|    3.373948|    1.850019|    0.179853|
+-----------------------------------------------------------------------+
|        File Writing Summary       |              Filename             |
+-----------------------------------------------------------------------+
|SU2 restart                        |solution_flow.dat                  |
|Paraview                           |flow.vtu                           |
|Paraview surface                   |surface_flow.vtu                   |
+-----------------------------------------------------------------------+

Writing the forces breakdown file (forces_breakdown.dat).
+-------------------------------------------------------------------------------------------------------+
|  Inner_Iter|   Time_Iter|    rms[Rho]|   rms[RhoU]|   rms[RhoV]|   rms[RhoE]|          CL|          CD|
+-------------------------------------------------------------------------------------------------------+
|         231|           0|   -2.063384|    0.487492|    0.424137|    3.372191|    1.861012|    0.179750|
|         232|           0|   -2.071540|    0.466318|    0.397865|    3.369202|    1.870888|    0.179378|
|         233|           0|   -2.080445|    0.446907|    0.372954|    3.365086|    1.879540|    0.178740|
|         234|           0|   -2.090168|    0.430459|    0.350940|    3.359580|    1.886888|    0.177847|
|         235|           0|   -2.100565|    0.418084|    0.333350|    3.352752|    1.892866|    0.176708|
|         236|           0|   -2.111297|    0.410704|    0.321387|    3.344821|    1.897427|    0.175341|
|         237|           0|   -2.122199|    0.408574|    0.315796|    3.335809|    1.900545|    0.173762|
|         238|           0|   -2.132834|    0.411580|    0.316596|    3.325997|    1.902212|    0.171994|
|         239|           0|   -2.143152|    0.419027|    0.323074|    3.315377|    1.902434|    0.170059|
|         240|           0|   -2.153215|    0.429853|    0.333907|    3.303831|    1.901242|    0.167982|
+-----------------------------------------------------------------------+
|        File Writing Summary       |              Filename             |
+-----------------------------------------------------------------------+
|SU2 restart                        |solution_flow.dat                  |
|Paraview                           |flow.vtu                           |
|Paraview surface                   |surface_flow.vtu                   |
+-----------------------------------------------------------------------+

Writing the forces breakdown file (forces_breakdown.dat).
+-------------------------------------------------------------------------------------------------------+
|  Inner_Iter|   Time_Iter|    rms[Rho]|   rms[RhoU]|   rms[RhoV]|   rms[RhoE]|          CL|          CD|
+-------------------------------------------------------------------------------------------------------+
|         241|           0|   -2.162883|    0.442673|    0.347490|    3.291402|    1.898675|    0.165790|
|         242|           0|   -2.171855|    0.456235|    0.362390|    3.278472|    1.894797|    0.163510|
|         243|           0|   -2.180003|    0.469505|    0.377468|    3.265207|    1.889677|    0.161169|
|         244|           0|   -2.187574|    0.481511|    0.391871|    3.251417|    1.883406|    0.158799|
|         245|           0|   -2.193610|    0.492405|    0.404846|    3.238451|    1.876080|    0.156424|
|         246|           0|   -2.198364|    0.501697|    0.415980|    3.226390|    1.867815|    0.154077|
|         247|           0|   -2.201908|    0.508984|    0.424928|    3.215545|    1.858730|    0.151782|
|         248|           0|   -2.204471|    0.514043|    0.431569|    3.206085|    1.848953|    0.149570|
|         249|           0|   -2.206207|    0.516662|    0.435692|    3.198256|    1.838620|    0.147464|
|         250|           0|   -2.207351|    0.517063|    0.437162|    3.192177|    1.827873|    0.145491|
+-----------------------------------------------------------------------+
|        File Writing Summary       |              Filename             |
+-----------------------------------------------------------------------+
|SU2 restart                        |solution_flow.dat                  |
|Paraview                           |flow.vtu                           |
|Paraview surface                   |surface_flow.vtu                   |
+-----------------------------------------------------------------------+

Writing the forces breakdown file (forces_breakdown.dat).
+-------------------------------------------------------------------------------------------------------+
|  Inner_Iter|   Time_Iter|    rms[Rho]|   rms[RhoU]|   rms[RhoV]|   rms[RhoE]|          CL|          CD|
+-------------------------------------------------------------------------------------------------------+
|         251|           0|   -2.208126|    0.515140|    0.435982|    3.187859|    1.816851|    0.143671|
|         252|           0|   -2.209049|    0.510669|    0.432149|    3.184861|    1.805700|    0.142025|
|         253|           0|   -2.210422|    0.503761|    0.425678|    3.182911|    1.794557|    0.140572|
|         254|           0|   -2.211566|    0.494375|    0.416586|    3.182656|    1.783564|    0.139327|
|         255|           0|   -2.212953|    0.482477|    0.404833|    3.183408|    1.772853|    0.138302|
|         256|           0|   -2.214886|    0.468175|    0.390463|    3.184692|    1.762556|    0.137508|
|         257|           0|   -2.217306|    0.451438|    0.373505|    3.186421|    1.752793|    0.136952|
|         258|           0|   -2.220323|    0.432375|    0.354119|    3.188263|    1.743682|    0.136640|
|         259|           0|   -2.224094|    0.411235|    0.332378|    3.189827|    1.735325|    0.136572|
|         260|           0|   -2.228709|    0.388153|    0.308474|    3.190822|    1.727818|    0.136747|
+-----------------------------------------------------------------------+
|        File Writing Summary       |              Filename             |
+-----------------------------------------------------------------------+
|SU2 restart                        |solution_flow.dat                  |
|Paraview                           |flow.vtu                           |
|Paraview surface                   |surface_flow.vtu                   |
+-----------------------------------------------------------------------+

Writing the forces breakdown file (forces_breakdown.dat).
+-------------------------------------------------------------------------------------------------------+
|  Inner_Iter|   Time_Iter|    rms[Rho]|   rms[RhoU]|   rms[RhoV]|   rms[RhoE]|          CL|          CD|
+-------------------------------------------------------------------------------------------------------+
|         261|           0|   -2.234161|    0.363500|    0.282855|    3.191080|    1.721236|    0.137162|
|         262|           0|   -2.240549|    0.337826|    0.256087|    3.190335|    1.715654|    0.137809|
|         263|           0|   -2.247767|    0.311780|    0.228967|    3.188574|    1.711127|    0.138680|
|         264|           0|   -2.255799|    0.286297|    0.202684|    3.185639|    1.707698|    0.139762|
|         265|           0|   -2.264489|    0.262520|    0.178692|    3.181583|    1.705396|    0.141040|
|         266|           0|   -2.273834|    0.241742|    0.158643|    3.176237|    1.704239|    0.142501|
|         267|           0|   -2.283982|    0.224728|    0.143974|    3.169334|    1.704225|    0.144125|
|         268|           0|   -2.294425|    0.212529|    0.135748|    3.161233|    1.705347|    0.145892|
|         269|           0|   -2.304623|    0.205970|    0.134306|    3.152362|    1.707578|    0.147781|
|         270|           0|   -2.314336|    0.204977|    0.138993|    3.142853|    1.710883|    0.149771|
+-----------------------------------------------------------------------+
|        File Writing Summary       |              Filename             |
+-----------------------------------------------------------------------+
|SU2 restart                        |solution_flow.dat                  |
|Paraview                           |flow.vtu                           |
|Paraview surface                   |surface_flow.vtu                   |
+-----------------------------------------------------------------------+

Writing the forces breakdown file (forces_breakdown.dat).
+-------------------------------------------------------------------------------------------------------+
|  Inner_Iter|   Time_Iter|    rms[Rho]|   rms[RhoU]|   rms[RhoV]|   rms[RhoE]|          CL|          CD|
+-------------------------------------------------------------------------------------------------------+
|         271|           0|   -2.323636|    0.208809|    0.148522|    3.132551|    1.715216|    0.151837|
|         272|           0|   -2.332207|    0.216459|    0.161418|    3.121805|    1.720517|    0.153957|
|         273|           0|   -2.339760|    0.226628|    0.176170|    3.110909|    1.726716|    0.156105|
|         274|           0|   -2.346192|    0.238210|    0.191526|    3.100078|    1.733737|    0.158260|
|         275|           0|   -2.351286|    0.250239|    0.206449|    3.089788|    1.741491|    0.160395|
|         276|           0|   -2.355131|    0.261788|    0.220250|    3.080165|    1.749882|    0.162487|
|         277|           0|   -2.357952|    0.272133|    0.232369|    3.071283|    1.758812|    0.164514|
|         278|           0|   -2.360009|    0.281056|    0.242463|    3.063218|    1.768174|    0.166452|
|         279|           0|   -2.361504|    0.288032|    0.250401|    3.056010|    1.777859|    0.168280|
|         280|           0|   -2.362423|    0.293016|    0.255991|    3.050028|    1.787756|    0.169979|
+-----------------------------------------------------------------------+
|        File Writing Summary       |              Filename             |
+-----------------------------------------------------------------------+
|SU2 restart                        |solution_flow.dat                  |
|Paraview                           |flow.vtu                           |
|Paraview surface                   |surface_flow.vtu                   |
+-----------------------------------------------------------------------+

Writing the forces breakdown file (forces_breakdown.dat).
+-------------------------------------------------------------------------------------------------------+
|  Inner_Iter|   Time_Iter|    rms[Rho]|   rms[RhoU]|   rms[RhoV]|   rms[RhoE]|          CL|          CD|
+-------------------------------------------------------------------------------------------------------+
|         281|           0|   -2.362966|    0.295935|    0.259218|    3.045324|    1.797752|    0.171531|
|         282|           0|   -2.363372|    0.296647|    0.260089|    3.041808|    1.807734|    0.172918|
|         283|           0|   -2.363836|    0.295132|    0.258568|    3.039336|    1.817595|    0.174128|
|         284|           0|   -2.364499|    0.291376|    0.254714|    3.037802|    1.827224|    0.175146|
|         285|           0|   -2.365668|    0.285394|    0.248565|    3.036815|    1.836523|    0.175965|
|         286|           0|   -2.367470|    0.277291|    0.240202|    3.036178|    1.845391|    0.176575|
|         287|           0|   -2.370061|    0.267176|    0.229661|    3.035657|    1.853741|    0.176971|
|         288|           0|   -2.373582|    0.255121|    0.217087|    3.034996|    1.861488|    0.177152|
|         289|           0|   -2.378037|    0.241316|    0.202638|    3.034063|    1.868559|    0.177117|
|         290|           0|   -2.383423|    0.226116|    0.186575|    3.032717|    1.874884|    0.176866|
+-----------------------------------------------------------------------+
|        File Writing Summary       |              Filename             |
+-----------------------------------------------------------------------+
|SU2 restart                        |solution_flow.dat                  |
|Paraview                           |flow.vtu                           |
|Paraview surface                   |surface_flow.vtu                   |
+-----------------------------------------------------------------------+

Writing the forces breakdown file (forces_breakdown.dat).
+-------------------------------------------------------------------------------------------------------+
|  Inner_Iter|   Time_Iter|    rms[Rho]|   rms[RhoU]|   rms[RhoV]|   rms[RhoE]|          CL|          CD|
+-------------------------------------------------------------------------------------------------------+
|         291|           0|   -2.389707|    0.209905|    0.169224|    3.030850|    1.880407|    0.176405|
|         292|           0|   -2.396960|    0.193069|    0.150914|    3.028250|    1.885082|    0.175741|
|         293|           0|   -2.405100|    0.176143|    0.132138|    3.024877|    1.888874|    0.174883|
|         294|           0|   -2.414073|    0.159726|    0.113610|    3.020654|    1.891760|    0.173842|
|         295|           0|   -2.423908|    0.144599|    0.096018|    3.015422|    1.893727|    0.172631|
|         296|           0|   -2.434471|    0.131397|    0.080186|    3.009169|    1.894776|    0.171267|
|         297|           0|   -2.445600|    0.120735|    0.066883|    3.001915|    1.894916|    0.169765|
|         298|           0|   -2.457027|    0.113020|    0.056704|    2.993795|    1.894165|    0.168145|
|         299|           0|   -2.468852|    0.108400|    0.050115|    2.984531|    1.892554|    0.166425|
|         300|           0|   -2.480519|    0.107066|    0.047194|    2.974553|    1.890120|    0.164625|
+-----------------------------------------------------------------------+
|        File Writing Summary       |              Filename             |
+-----------------------------------------------------------------------+
|SU2 restart                        |solution_flow.dat                  |
|Paraview                           |flow.vtu                           |
|Paraview surface                   |surface_flow.vtu                   |
+-----------------------------------------------------------------------+

Writing the forces breakdown file (forces_breakdown.dat).
+-------------------------------------------------------------------------------------------------------+
|  Inner_Iter|   Time_Iter|    rms[Rho]|   rms[RhoU]|   rms[RhoV]|   rms[RhoE]|          CL|          CD|
+-------------------------------------------------------------------------------------------------------+
|         301|           0|   -2.491877|    0.108786|    0.047688|    2.963952|    1.886912|    0.162766|
|         302|           0|   -2.502958|    0.113099|    0.051127|    2.952588|    1.882988|    0.160871|
|         303|           0|   -2.513439|    0.119347|    0.056818|    2.940726|    1.878412|    0.158960|
|         304|           0|   -2.523136|    0.126886|    0.064031|    2.928535|    1.873256|    0.157055|
|         305|           0|   -2.531890|    0.135073|    0.072021|    2.916244|    1.867595|    0.155179|
|         306|           0|   -2.539534|    0.143362|    0.080112|    2.904099|    1.861512|    0.153352|
|         307|           0|   -2.546086|    0.151212|    0.087764|    2.892242|    1.855090|    0.151594|
|         308|           0|   -2.551702|    0.158179|    0.094580|    2.880719|    1.848421|    0.149924|
|         309|           0|   -2.556335|    0.163934|    0.100202|    2.869874|    1.841588|    0.148361|
|         310|           0|   -2.560029|    0.168224|    0.104386|    2.860018|    1.834684|    0.146920|
+-----------------------------------------------------------------------+
|        File Writing Summary       |              Filename             |
+-----------------------------------------------------------------------+
|SU2 restart                        |solution_flow.dat                  |
|Paraview                           |flow.vtu                           |
|Paraview surface                   |surface_flow.vtu                   |
+-----------------------------------------------------------------------+

Writing the forces breakdown file (forces_breakdown.dat).
+-------------------------------------------------------------------------------------------------------+
|  Inner_Iter|   Time_Iter|    rms[Rho]|   rms[RhoU]|   rms[RhoV]|   rms[RhoE]|          CL|          CD|
+-------------------------------------------------------------------------------------------------------+
|         311|           0|   -2.562974|    0.170895|    0.106934|    2.851232|    1.827795|    0.145618|
|         312|           0|   -2.565361|    0.171832|    0.107610|    2.843608|    1.821008|    0.144467|
|         313|           0|   -2.567359|    0.170944|    0.106323|    2.837198|    1.814406|    0.143477|
|         314|           0|   -2.569173|    0.168112|    0.103009|    2.831966|    1.808067|    0.142659|
|         315|           0|   -2.571030|    0.163350|    0.097641|    2.827829|    1.802068|    0.142020|
|         316|           0|   -2.573137|    0.156578|    0.090226|    2.824595|    1.796478|    0.141565|
|         317|           0|   -2.575592|    0.147775|    0.080760|    2.822182|    1.791358|    0.141297|
|         318|           0|   -2.578525|    0.136969|    0.069275|    2.820401|    1.786766|    0.141216|
|         319|           0|   -2.582040|    0.124185|    0.055810|    2.819030|    1.782749|    0.141320|
|         320|           0|   -2.586167|    0.109496|    0.040505|    2.817918|    1.779349|    0.141608|
+-----------------------------------------------------------------------+
|        File Writing Summary       |              Filename             |
+-----------------------------------------------------------------------+
|SU2 restart                        |solution_flow.dat                  |
|Paraview                           |flow.vtu                           |
|Paraview surface                   |surface_flow.vtu                   |
+-----------------------------------------------------------------------+

Writing the forces breakdown file (forces_breakdown.dat).
+-------------------------------------------------------------------------------------------------------+
|  Inner_Iter|   Time_Iter|    rms[Rho]|   rms[RhoU]|   rms[RhoV]|   rms[RhoE]|          CL|          CD|
+-------------------------------------------------------------------------------------------------------+
|         321|           0|   -2.590977|    0.093022|    0.023418|    2.816837|    1.776597|    0.142072|
|         322|           0|   -2.596433|    0.074901|    0.004742|    2.815680|    1.774520|    0.142707|
|         323|           0|   -2.602625|    0.055223|   -0.015205|    2.814187|    1.773131|    0.143501|
|         324|           0|   -2.609529|    0.034365|   -0.036010|    2.812215|    1.772441|    0.144446|
|         325|           0|   -2.617130|    0.012705|   -0.057195|    2.809636|    1.772448|    0.145527|
|         326|           0|   -2.625456|   -0.009316|   -0.078063|    2.806265|    1.773144|    0.146733|
|         327|           0|   -2.634420|   -0.031243|   -0.097937|    2.802037|    1.774513|    0.148047|
|         328|           0|   -2.643903|   -0.052439|   -0.115947|    2.796946|    1.776533|    0.149455|
|         329|           0|   -2.653683|   -0.072282|   -0.131281|    2.791067|    1.779173|    0.150939|
|         330|           0|   -2.663666|   -0.090057|   -0.143204|    2.784340|    1.782396|    0.152483|
+-----------------------------------------------------------------------+
|        File Writing Summary       |              Filename             |
+-----------------------------------------------------------------------+
|SU2 restart                        |solution_flow.dat                  |
|Paraview                           |flow.vtu                           |
|Paraview surface                   |surface_flow.vtu                   |
+-----------------------------------------------------------------------+

Writing the forces breakdown file (forces_breakdown.dat).
+-------------------------------------------------------------------------------------------------------+
|  Inner_Iter|   Time_Iter|    rms[Rho]|   rms[RhoU]|   rms[RhoV]|   rms[RhoE]|          CL|          CD|
+-------------------------------------------------------------------------------------------------------+
|         331|           0|   -2.673564|   -0.105148|   -0.151205|    2.776937|    1.786158|    0.154069|
|         332|           0|   -2.683259|   -0.117011|   -0.155089|    2.768893|    1.790412|    0.155679|
|         333|           0|   -2.692484|   -0.125446|   -0.155036|    2.760401|    1.795105|    0.157296|
|         334|           0|   -2.700943|   -0.130188|   -0.151531|    2.751684|    1.800179|    0.158902|
|         335|           0|   -2.708662|   -0.131465|   -0.145352|    2.742738|    1.805576|    0.160480|
|         336|           0|   -2.715656|   -0.129834|   -0.137308|    2.733555|    1.811232|    0.162014|
|         337|           0|   -2.721759|   -0.125911|   -0.128193|    2.724406|    1.817084|    0.163487|
|         338|           0|   -2.726907|   -0.120503|   -0.118757|    2.715489|    1.823068|    0.164886|
|         339|           0|   -2.731303|   -0.114288|   -0.109633|    2.706753|    1.829118|    0.166195|
|         340|           0|   -2.734995|   -0.107952|   -0.101235|    2.698342|    1.835170|    0.167403|
+-----------------------------------------------------------------------+
|        File Writing Summary       |              Filename             |
+-----------------------------------------------------------------------+
|SU2 restart                        |solution_flow.dat                  |
|Paraview                           |flow.vtu                           |
|Paraview surface                   |surface_flow.vtu                   |
+-----------------------------------------------------------------------+

Writing the forces breakdown file (forces_breakdown.dat).
+-------------------------------------------------------------------------------------------------------+
|  Inner_Iter|   Time_Iter|    rms[Rho]|   rms[RhoU]|   rms[RhoV]|   rms[RhoE]|          CL|          CD|
+-------------------------------------------------------------------------------------------------------+
|         341|           0|   -2.738088|   -0.102075|   -0.093889|    2.690354|    1.841163|    0.168498|
|         342|           0|   -2.740686|   -0.097017|   -0.087835|    2.682934|    1.847034|    0.169470|
|         343|           0|   -2.742925|   -0.093044|   -0.083219|    2.676171|    1.852725|    0.170311|
|         344|           0|   -2.744985|   -0.090314|   -0.080127|    2.670097|    1.858181|    0.171013|
|         345|           0|   -2.747050|   -0.088903|   -0.078617|    2.664692|    1.863349|    0.171572|
|         346|           0|   -2.749349|   -0.088854|   -0.078688|    2.659832|    1.868184|    0.171984|
|         347|           0|   -2.752076|   -0.090193|   -0.080320|    2.655365|    1.872642|    0.172246|
|         348|           0|   -2.755289|   -0.092886|   -0.083445|    2.651282|    1.876686|    0.172359|
|         349|           0|   -2.759112|   -0.096960|   -0.087977|    2.647436|    1.880285|    0.172324|
|         350|           0|   -2.763655|   -0.103304|   -0.093874|    2.643562|    1.883411|    0.172144|
+-----------------------------------------------------------------------+
[...]
|         905|           0|   -4.502596|   -1.432130|   -1.772463|    0.974816|    1.918048|    0.161670|
|         906|           0|   -4.462572|   -1.575054|   -1.805920|    0.960948|    1.918057|    0.161672|
|         907|           0|   -4.388467|   -1.786391|   -1.820447|    1.047480|    1.918066|    0.161674|
|         908|           0|   -4.299245|   -1.792997|   -1.803541|    1.178043|    1.918079|    0.161677|
|         909|           0|   -4.199833|   -1.480727|   -1.751693|    1.316808|    1.918090|    0.161680|
|         910|           0|   -4.093485|   -1.220510|   -1.667358|    1.453715|    1.918104|    0.161684|
+-----------------------------------------------------------------------+
|        File Writing Summary       |              Filename             |
+-----------------------------------------------------------------------+
|SU2 restart                        |solution_flow.dat                  |
|Paraview                           |flow.vtu                           |
|Paraview surface                   |surface_flow.vtu                   |
+-----------------------------------------------------------------------+

Writing the forces breakdown file (forces_breakdown.dat).
+-------------------------------------------------------------------------------------------------------+
|  Inner_Iter|   Time_Iter|    rms[Rho]|   rms[RhoU]|   rms[RhoV]|   rms[RhoE]|          CL|          CD|
+-------------------------------------------------------------------------------------------------------+
|         911|           0|   -4.177466|   -1.215415|   -1.664457|    1.387651|    1.918117|    0.161687|
|         912|           0|   -4.360648|   -1.322348|   -1.712637|    1.210459|    1.918132|    0.161691|
|         913|           0|   -4.482997|   -1.426625|   -1.755245|    1.057340|    1.918146|    0.161694|
|         914|           0|   -4.518558|   -1.525419|   -1.788004|    0.963262|    1.918163|    0.161699|
|         915|           0|   -4.516104|   -1.616862|   -1.812190|    0.926432|    1.918177|    0.161702|
|         916|           0|   -4.517525|   -1.698752|   -1.829773|    0.910249|    1.918196|    0.161706|
|         917|           0|   -4.535036|   -1.767521|   -1.842233|    0.889594|    1.918212|    0.161709|
|         918|           0|   -4.571016|   -1.819596|   -1.850898|    0.854443|    1.918230|    0.161713|
|         919|           0|   -4.618836|   -1.855035|   -1.857247|    0.810030|    1.918246|    0.161716|
|         920|           0|   -4.674697|   -1.878403|   -1.862715|    0.759512|    1.918265|    0.161720|
+-----------------------------------------------------------------------+
|        File Writing Summary       |              Filename             |
+-----------------------------------------------------------------------+
|SU2 restart                        |solution_flow.dat                  |
|Paraview                           |flow.vtu                           |
|Paraview surface                   |surface_flow.vtu                   |
+-----------------------------------------------------------------------+

Writing the forces breakdown file (forces_breakdown.dat).
+-------------------------------------------------------------------------------------------------------+
|  Inner_Iter|   Time_Iter|    rms[Rho]|   rms[RhoU]|   rms[RhoV]|   rms[RhoE]|          CL|          CD|
+-------------------------------------------------------------------------------------------------------+
|         921|           0|   -4.734121|   -1.895686|   -1.868235|    0.707217|    1.918281|    0.161723|
|         922|           0|   -4.629636|   -1.981838|   -1.872649|    0.847976|    1.918300|    0.161726|
|         923|           0|   -4.517932|   -1.730954|   -1.860061|    1.004032|    1.918317|    0.161728|
|         924|           0|   -4.431882|   -1.514830|   -1.828256|    1.120962|    1.918336|    0.161731|
|         925|           0|   -4.382992|   -1.379871|   -1.788616|    1.191036|    1.918352|    0.161732|
|         926|           0|   -4.373464|   -1.305898|   -1.756862|    1.215326|    1.918371|    0.161734|
|         927|           0|   -4.399257|   -1.280181|   -1.743479|    1.196922|    1.918386|    0.161735|
|         928|           0|   -4.448118|   -1.295097|   -1.752244|    1.140671|    1.918404|    0.161737|
|         929|           0|   -4.494628|   -1.347449|   -1.781701|    1.056546|    1.918419|    0.161737|
|         930|           0|   -4.505343|   -1.440740|   -1.824619|    0.973564|    1.918435|    0.161739|
+-----------------------------------------------------------------------+
|        File Writing Summary       |              Filename             |
+-----------------------------------------------------------------------+
|SU2 restart                        |solution_flow.dat                  |
|Paraview                           |flow.vtu                           |
|Paraview surface                   |surface_flow.vtu                   |
+-----------------------------------------------------------------------+

Writing the forces breakdown file (forces_breakdown.dat).
+-------------------------------------------------------------------------------------------------------+
|  Inner_Iter|   Time_Iter|    rms[Rho]|   rms[RhoU]|   rms[RhoV]|   rms[RhoE]|          CL|          CD|
+-------------------------------------------------------------------------------------------------------+
|         931|           0|   -4.464300|   -1.591165|   -1.865340|    0.961342|    1.918449|    0.161739|
|         932|           0|   -4.389031|   -1.824468|   -1.881502|    1.049493|    1.918465|    0.161740|
|         933|           0|   -4.298521|   -1.817749|   -1.856749|    1.181024|    1.918478|    0.161740|
|         934|           0|   -4.198699|   -1.480198|   -1.790529|    1.319644|    1.918492|    0.161740|
|         935|           0|   -4.091586|   -1.216465|   -1.691241|    1.456834|    1.918503|    0.161739|
|         936|           0|   -4.182508|   -1.218435|   -1.690943|    1.383865|    1.918516|    0.161739|
|         937|           0|   -4.366063|   -1.326462|   -1.745643|    1.206479|    1.918525|    0.161737|
|         938|           0|   -4.487279|   -1.432356|   -1.795411|    1.053792|    1.918535|    0.161736|
|         939|           0|   -4.520916|   -1.533428|   -1.834823|    0.960898|    1.918543|    0.161734|
|         940|           0|   -4.517029|   -1.627855|   -1.864546|    0.925540|    1.918551|    0.161733|
+-----------------------------------------------------------------------+
|        File Writing Summary       |              Filename             |
+-----------------------------------------------------------------------+
|SU2 restart                        |solution_flow.dat                  |
|Paraview                           |flow.vtu                           |
|Paraview surface                   |surface_flow.vtu                   |
+-----------------------------------------------------------------------+

Writing the forces breakdown file (forces_breakdown.dat).
+-------------------------------------------------------------------------------------------------------+
|  Inner_Iter|   Time_Iter|    rms[Rho]|   rms[RhoU]|   rms[RhoV]|   rms[RhoE]|          CL|          CD|
+-------------------------------------------------------------------------------------------------------+
|         941|           0|   -4.518044|   -1.713263|   -1.886281|    0.909937|    1.918558|    0.161731|
|         942|           0|   -4.535654|   -1.785633|   -1.901406|    0.889114|    1.918567|    0.161730|
|         943|           0|   -4.571008|   -1.840620|   -1.911403|    0.854684|    1.918572|    0.161727|
|         944|           0|   -4.618898|   -1.877740|   -1.918124|    0.810054|    1.918579|    0.161726|
|         945|           0|   -4.675437|   -1.901827|   -1.923515|    0.758451|    1.918583|    0.161723|
|         946|           0|   -4.733777|   -1.924454|   -1.928986|    0.706647|    1.918589|    0.161722|
|         947|           0|   -4.627061|   -2.012874|   -1.931777|    0.851469|    1.918592|    0.161719|
|         948|           0|   -4.515467|   -1.734598|   -1.912209|    1.007379|    1.918597|    0.161717|
|         949|           0|   -4.430802|   -1.514327|   -1.869895|    1.122863|    1.918600|    0.161715|
|         950|           0|   -4.383094|   -1.379351|   -1.821016|    1.191714|    1.918605|    0.161713|
+-----------------------------------------------------------------------+
|        File Writing Summary       |              Filename             |
+-----------------------------------------------------------------------+
|SU2 restart                        |solution_flow.dat                  |
|Paraview                           |flow.vtu                           |
|Paraview surface                   |surface_flow.vtu                   |
+-----------------------------------------------------------------------+

Writing the forces breakdown file (forces_breakdown.dat).
+-------------------------------------------------------------------------------------------------------+
|  Inner_Iter|   Time_Iter|    rms[Rho]|   rms[RhoU]|   rms[RhoV]|   rms[RhoE]|          CL|          CD|
+-------------------------------------------------------------------------------------------------------+
|         951|           0|   -4.374544|   -1.306040|   -1.783710|    1.214957|    1.918607|    0.161711|
|         952|           0|   -4.401361|   -1.281142|   -1.768367|    1.195466|    1.918611|    0.161710|
|         953|           0|   -4.451401|   -1.296953|   -1.778290|    1.137879|    1.918613|    0.161707|
|         954|           0|   -4.499007|   -1.350398|   -1.811975|    1.051971|    1.918617|    0.161706|
|         955|           0|   -4.508648|   -1.445365|   -1.862116|    0.968555|    1.918618|    0.161704|
|         956|           0|   -4.465951|   -1.599263|   -1.911248|    0.958373|    1.918621|    0.161703|
|         957|           0|   -4.389370|   -1.841070|   -1.931116|    1.049408|    1.918623|    0.161701|
|         958|           0|   -4.297605|   -1.820559|   -1.900228|    1.182825|    1.918627|    0.161701|
|         959|           0|   -4.197218|   -1.475631|   -1.821165|    1.321965|    1.918629|    0.161700|
|         960|           0|   -4.089709|   -1.212129|   -1.709243|    1.459353|    1.918633|    0.161700|
+-----------------------------------------------------------------------+
|        File Writing Summary       |              Filename             |
+-----------------------------------------------------------------------+
|SU2 restart                        |solution_flow.dat                  |
|Paraview                           |flow.vtu                           |
|Paraview surface                   |surface_flow.vtu                   |
+-----------------------------------------------------------------------+

Writing the forces breakdown file (forces_breakdown.dat).
+-------------------------------------------------------------------------------------------------------+
|  Inner_Iter|   Time_Iter|    rms[Rho]|   rms[RhoU]|   rms[RhoV]|   rms[RhoE]|          CL|          CD|
+-------------------------------------------------------------------------------------------------------+
|         961|           0|   -4.188451|   -1.222232|   -1.713085|    1.378457|    1.918636|    0.161699|
|         962|           0|   -4.372180|   -1.330613|   -1.773685|    1.200703|    1.918640|    0.161699|
|         963|           0|   -4.492495|   -1.437003|   -1.829848|    1.048134|    1.918644|    0.161699|
|         964|           0|   -4.524623|   -1.538865|   -1.875216|    0.956382|    1.918649|    0.161699|
|         965|           0|   -4.520619|   -1.634580|   -1.909965|    0.921538|    1.918653|    0.161699|
|         966|           0|   -4.522345|   -1.721915|   -1.935525|    0.905429|    1.918658|    0.161700|
|         967|           0|   -4.540969|   -1.796743|   -1.953234|    0.883598|    1.918663|    0.161701|
|         968|           0|   -4.577500|   -1.854387|   -1.964724|    0.847939|    1.918670|    0.161702|
|         969|           0|   -4.627056|   -1.893815|   -1.972239|    0.801390|    1.918675|    0.161702|
|         970|           0|   -4.686175|   -1.919723|   -1.978224|    0.746814|    1.918682|    0.161704|
+-----------------------------------------------------------------------+
|        File Writing Summary       |              Filename             |
+-----------------------------------------------------------------------+
|SU2 restart                        |solution_flow.dat                  |
|Paraview                           |flow.vtu                           |
|Paraview surface                   |surface_flow.vtu                   |
+-----------------------------------------------------------------------+

Writing the forces breakdown file (forces_breakdown.dat).
+-------------------------------------------------------------------------------------------------------+
|  Inner_Iter|   Time_Iter|    rms[Rho]|   rms[RhoU]|   rms[RhoV]|   rms[RhoE]|          CL|          CD|
+-------------------------------------------------------------------------------------------------------+
|         971|           0|   -4.741586|   -1.953146|   -1.984517|    0.698048|    1.918688|    0.161705|
|         972|           0|   -4.630126|   -2.031293|   -1.986052|    0.850729|    1.918697|    0.161707|
|         973|           0|   -4.516366|   -1.730592|   -1.958891|    1.008861|    1.918704|    0.161708|
|         974|           0|   -4.431355|   -1.510222|   -1.905795|    1.124086|    1.918713|    0.161710|
|         975|           0|   -4.384257|   -1.377008|   -1.848449|    1.191825|    1.918722|    0.161712|
|         976|           0|   -4.376807|   -1.305434|   -1.806739|    1.213627|    1.918731|    0.161714|
|         977|           0|   -4.404506|   -1.282108|   -1.790412|    1.192744|    1.918739|    0.161716|
|         978|           0|   -4.454693|   -1.299420|   -1.802167|    1.133946|    1.918750|    0.161718|
|         979|           0|   -4.500876|   -1.354552|   -1.840421|    1.047527|    1.918759|    0.161720|
|         980|           0|   -4.508124|   -1.451984|   -1.897938|    0.965478|    1.918770|    0.161722|
+-----------------------------------------------------------------------+
|        File Writing Summary       |              Filename             |
+-----------------------------------------------------------------------+
|SU2 restart                        |solution_flow.dat                  |
|Paraview                           |flow.vtu                           |
|Paraview surface                   |surface_flow.vtu                   |
+-----------------------------------------------------------------------+

Writing the forces breakdown file (forces_breakdown.dat).
+-------------------------------------------------------------------------------------------------------+
|  Inner_Iter|   Time_Iter|    rms[Rho]|   rms[RhoU]|   rms[RhoV]|   rms[RhoE]|          CL|          CD|
+-------------------------------------------------------------------------------------------------------+
|         981|           0|   -4.463674|   -1.610918|   -1.955196|    0.959299|    1.918779|    0.161724|
|         982|           0|   -4.386282|   -1.864875|   -1.976985|    1.053278|    1.918790|    0.161726|
|         983|           0|   -4.294172|   -1.821326|   -1.936811|    1.187422|    1.918799|    0.161727|
|         984|           0|   -4.193796|   -1.468091|   -1.843633|    1.326388|    1.918810|    0.161729|
|         985|           0|   -4.086354|   -1.205544|   -1.720330|    1.463476|    1.918819|    0.161730|
|         986|           0|   -4.196193|   -1.227396|   -1.730843|    1.371207|    1.918830|    0.161732|
|         987|           0|   -4.378847|   -1.336340|   -1.796684|    1.193559|    1.918839|    0.161733|
|         988|           0|   -4.495584|   -1.443538|   -1.859044|    1.042590|    1.918850|    0.161735|
|         989|           0|   -4.525491|   -1.546669|   -1.911128|    0.952935|    1.918859|    0.161736|
|         990|           0|   -4.521534|   -1.644284|   -1.952565|    0.919000|    1.918869|    0.161737|
+-----------------------------------------------------------------------+
|        File Writing Summary       |              Filename             |
+-----------------------------------------------------------------------+
|SU2 restart                        |solution_flow.dat                  |
|Paraview                           |flow.vtu                           |
|Paraview surface                   |surface_flow.vtu                   |
+-----------------------------------------------------------------------+

Writing the forces breakdown file (forces_breakdown.dat).
+-------------------------------------------------------------------------------------------------------+
|  Inner_Iter|   Time_Iter|    rms[Rho]|   rms[RhoU]|   rms[RhoV]|   rms[RhoE]|          CL|          CD|
+-------------------------------------------------------------------------------------------------------+
|         991|           0|   -4.523826|   -1.734139|   -1.984206|    0.902992|    1.918878|    0.161738|
|         992|           0|   -4.543242|   -1.811894|   -2.006744|    0.880680|    1.918889|    0.161739|
|         993|           0|   -4.580340|   -1.872240|   -2.021590|    0.844690|    1.918897|    0.161739|
|         994|           0|   -4.630840|   -1.913737|   -2.031280|    0.797414|    1.918907|    0.161739|
|         995|           0|   -4.690360|   -1.941067|   -2.038679|    0.742830|    1.918915|    0.161739|
|         996|           0|   -4.737521|   -1.991531|   -2.046450|    0.703759|    1.918924|    0.161739|
|         997|           0|   -4.623663|   -2.051448|   -2.045135|    0.860563|    1.918932|    0.161739|
|         998|           0|   -4.510981|   -1.723943|   -2.006183|    1.016607|    1.918940|    0.161739|
|         999|           0|   -4.427806|   -1.504315|   -1.938907|    1.129182|    1.918947|    0.161739|

----------------------------- Solver Exit -------------------------------

Maximum number of iterations reached (ITER = 1000) before convergence.
+-----------------------------------------------------------------------+
|      Convergence Field     |     Value    |   Criterion  |  Converged |
+-----------------------------------------------------------------------+
|                  Cauchy[CD]|   9.94571e-06|       < 1e-10|          No|
+-----------------------------------------------------------------------+
-------------------------------------------------------------------------
+-----------------------------------------------------------------------+
|        File Writing Summary       |              Filename             |
+-----------------------------------------------------------------------+
|SU2 restart                        |solution_flow.dat                  |
|Paraview                           |flow.vtu                           |
|Paraview surface                   |surface_flow.vtu                   |
+-----------------------------------------------------------------------+

Writing the forces breakdown file (forces_breakdown.dat).

------------------------- Solver Postprocessing -------------------------
Deleted CNumerics container.
Deleted CIntegration container.
Deleted CSolver container.
Deleted CIteration container.
Deleted CInterpolator container.
Deleted CInterface container.
Deleted CGeometry container.
Deleted CFreeFormDefBox class.
Deleted CSurfaceMovement class.
Deleted CVolumetricMovement class.
Deleted CConfig container.
Deleted nInst container.
Deleted COutput class.
-------------------------------------------------------------------------

------------------------- Exit Success (SU2_CFD) ------------------------

