
-------------------------------------------------------------------------
|    ___ _   _ ___                                                      |
|   / __| | | |_  )   Release 7.0.3 "Blackbird"                         |
|   \__ \ |_| |/ /                                                      |
|   |___/\___//___|   Suite (Computational Fluid Dynamics Code)         |
|                                                                       |
-------------------------------------------------------------------------
| SU2 Project Website: https://su2code.github.io                        |
|                                                                       |
| The SU2 Project is maintained by the SU2 Foundation                   |
| (http://su2foundation.org)                                            |
-------------------------------------------------------------------------
| Copyright 2012-2020, SU2 Contributors                                 |
|                                                                       |
| SU2 is free software; you can redistribute it and/or                  |
| modify it under the terms of the GNU Lesser General Public            |
| License as published by the Free Software Foundation; either          |
| version 2.1 of the License, or (at your option) any later version.    |
|                                                                       |
| SU2 is distributed in the hope that it will be useful,                |
| but WITHOUT ANY WARRANTY; without even the implied warranty of        |
| MERCHANTABILITY or FITNESS FOR A PARTICULAR PURPOSE. See the GNU      |
| Lesser General Public License for more details.                       |
|                                                                       |
| You should have received a copy of the GNU Lesser General Public      |
| License along with SU2. If not, see <http://www.gnu.org/licenses/>.   |
-------------------------------------------------------------------------

Parsing config file for zone 0

----------------- Physical Case Definition ( Zone 0 ) -------------------
Compressible Euler equations.
Mach number: 0.294.
Angle of attack (AoA): 10 deg, and angle of sideslip (AoS): 0 deg.
No restart solution, use the values at infinity (freestream).
Dimensional simulation.
The reference area is 10 m^2.
The semi-span will be computed using the max y(3D) value.
The reference length is 1 m.
Reference origin for moment evaluation is (0, 0, 0).
Surface(s) where the force coefficients are evaluated: Wing_1.

Surface(s) where the objective function is evaluated: airfoil.
Surface(s) plotted in the output file: Wing_1.
Surface(s) to be analyzed in detail: airfoil.
Surface(s) affected by the design variables: Wing_1.
Input mesh file name: deformed.su2

--------------- Space Numerical Integration ( Zone 0 ) ------------------
Roe (with entropy fix = 0) solver for the flow inviscid terms.
Roe with DDES's FD low-dissipation function.
Second order integration in space, with slope limiter.
Venkatakrishnan slope-limiting method, with constant: 0.05. 
The reference element size is: 1. 
Gradient for upwind reconstruction: Green-Gauss.
Gradient for viscous and source terms: Green-Gauss.

--------------- Time Numerical Integration  ( Zone 0 ) ------------------
Local time stepping (steady state simulation).
Euler implicit method for the flow equations.
FGMRES is used for solving the linear system.
Using a ILU(0) preconditioning.
Convergence criteria of the linear solver: 1e-06.
Max number of linear iterations: 5.
V Multigrid Cycle, with 3 multigrid levels.
Damping factor for the residual restriction: 0.75.
Damping factor for the correction prolongation: 0.75.
No CFL adaptation.
+-------------------------------------------+
|  MG Level| Presmooth|PostSmooth|CorrectSmo|
+-------------------------------------------+
|         0|         1|         0|         0|
|         1|         2|         0|         0|
|         2|         3|         0|         0|
|         3|         3|         0|         0|
+-------------------------------------------+
Courant-Friedrichs-Lewy number:        1

------------------ Convergence Criteria  ( Zone 0 ) ---------------------
Maximum number of solver subiterations: 1000.
Begin convergence monitoring at iteration 10.
Residual minimum value: 1e-8.
Cauchy series min. value: 1e-10.
Number of Cauchy elements: 100.
Begin windowed time average at iteration 15.

-------------------- Output Information ( Zone 0 ) ----------------------
Writing solution files every 10 iterations.
Writing the convergence history file every 1 inner iterations.
Writing the screen convergence history every 1 inner iterations.
The tabular file format is Tecplot (.dat).
Convergence history file name: history.
Forces breakdown file name: forces_breakdown.dat.
Surface file name: surface_flow.
Volume file name: flow.
Restart file name: solution_flow.dat.

------------- Config File Boundary Information ( Zone 0 ) ---------------
+-----------------------------------------------------------------------+
|                        Marker Type|                        Marker Name|
+-----------------------------------------------------------------------+
|                         Euler wall|                             Wing_1|
+-----------------------------------------------------------------------+
|                          Far-field|                           Farfield|
+-----------------------------------------------------------------------+
|                     Symmetry plane|                                  0|
+-----------------------------------------------------------------------+
|           Deformable mesh boundary|                            airfoil|
+-----------------------------------------------------------------------+

-------------------- Output Preprocessing ( Zone 0 ) --------------------
Screen output fields: INNER_ITER, TIME_ITER, RMS_DENSITY, RMS_MOMENTUM-X, RMS_MOMENTUM-Y, RMS_ENERGY, LIFT, DRAG
  Info: Ignoring the following history output groups:
  TIME_ITER
History output group(s): ITER, RMS_RES, AERO_COEFF
Warning: No (valid) fields chosen for convergence monitoring. Convergence monitoring inactive.
Warning: No (valid) fields chosen for time convergence monitoring. Time convergence monitoring inactive.
Volume output fields: COORDINATES, SOLUTION, PRIMITIVE

------------------- Geometry Preprocessing ( Zone 0 ) -------------------
Three dimensional problem.
142678 grid points before partitioning.
739205 volume elements before partitioning.
2 surface markers.
99234 boundary elements in index 0 (Marker = Wing_1).
1280 boundary elements in index 1 (Marker = Farfield).
Executing the partitioning functions.
Building the graph adjacency structure.
Calling ParMETIS... graph partitioning complete (18884 edge cuts).
Distributing ParMETIS coloring.
Rebalancing vertices.
Rebalancing volume element connectivity.
Rebalancing markers and surface elements.
153425 vertices including ghost points. 
767118 interior elements including halo cells. 
767118 tetrahedra.
Establishing MPI communication patterns.
Setting point connectivity.
Renumbering points (Reverse Cuthill McKee Ordering).
Recomputing point connectivity.
Setting element connectivity.
Checking the numerical grid orientation.
Identifying edges and vertices.
Computing centers of gravity.
Setting the control volume structure.
Volume of the computational grid: 587307.
Searching for the closest normal neighbors to the surfaces.
Storing a mapping from global to local point index.
Compute the surface curvature.
Max K: 955.298. Mean K: 12.8884. Standard deviation K: 55.0094.
Checking for periodicity.
Computing mesh quality statistics for the dual control volumes.
+--------------------------------------------------------------+
|           Mesh Quality Metric|        Minimum|        Maximum|
+--------------------------------------------------------------+
|    Orthogonality Angle (deg.)|        46.5616|        85.7731|
|     CV Face Area Aspect Ratio|        1.42411|        36.9214|
|           CV Sub-Volume Ratio|        1.02914|        142.685|
+--------------------------------------------------------------+
Setting the multigrid structure.
+-------------------------------------------+
|  MG Level|       CVs|Aggl. Rate|       CFL|
+-------------------------------------------+
|         0|    153425|    1/1.00|         1|
|         1|     27876|     1/5.5|  0.849577|
|         2|      6802|     1/4.1|  0.796335|
Finding max control volume width.
Communicating number of neighbors.
Semi-span length = 4.99135 m.
Wetted area = 42.1827 m^2.
Area projection in the x-plane = 3.07531 m^2, y-plane = 1.48706 m^2, z-plane = 20.1011 m^2.
Max. coordinate in the x-direction = 1.02239 m, y-direction = 4.99135 m, z-direction = 0.470533 m.
Min. coordinate in the x-direction = -1.02426 m, y-direction = -4.99078 m, z-direction = -0.119362 m.
Checking if Euler & Symmetry markers are straight/plane:
Boundary marker Wing_1 is NOT a single plane.
Boundary marker 0 is a single plane.

-------------------- Solver Preprocessing ( Zone 0 ) --------------------
Inviscid flow: Computing density based on free-stream
temperature and pressure using the ideal gas law.
Force coefficients computed using free-stream values.

-- Models:
+------------------------------------------------------------------------------+
|          Viscosity Model|        Conductivity Model|              Fluid Model|
+------------------------------------------------------------------------------+
|                        -|                         -|             STANDARD_AIR|
+------------------------------------------------------------------------------+
-- Fluid properties:
+------------------------------------------------------------------------------+
|                  Name|    Dim. value|    Ref. value|      Unit|Non-dim. value|
+------------------------------------------------------------------------------+
|          Gas Constant|       287.058|             1|  N.m/kg.K|       287.058|
|      Spec. Heat Ratio|             -|             -|         -|           1.4|
+------------------------------------------------------------------------------+
-- Initial and free-stream conditions:
+------------------------------------------------------------------------------+
|                  Name|    Dim. value|    Ref. value|      Unit|Non-dim. value|
+------------------------------------------------------------------------------+
|       Static Pressure|        101325|             1|        Pa|        101325|
|               Density|       1.22498|             1|    kg/m^3|       1.22498|
|           Temperature|        288.15|             1|         K|        288.15|
|          Total Energy|        211794|             1|   m^2/s^2|        211794|
|            Velocity-X|       98.5274|             1|       m/s|       98.5274|
|            Velocity-Y|             0|             1|       m/s|             0|
|            Velocity-Z|        17.373|             1|       m/s|        17.373|
|    Velocity Magnitude|       100.047|             1|       m/s|       100.047|
+------------------------------------------------------------------------------+
|           Mach Number|             -|             -|         -|         0.294|
+------------------------------------------------------------------------------+
Initialize Jacobian structure (Euler). MG level: 0.
Initialize Jacobian structure (Euler). MG level: 1.
Initialize Jacobian structure (Euler). MG level: 2.

------------------- Numerics Preprocessing ( Zone 0 ) -------------------

----------------- Integration Preprocessing ( Zone 0 ) ------------------

------------------- Iteration Preprocessing ( Zone 0 ) ------------------
Euler/Navier-Stokes/RANS fluid iteration.

------------------------------ Begin Solver -----------------------------

Simulation Run using the Single-zone Driver
+-------------------------------------------------------------------------------------------------------+
|  Inner_Iter|   Time_Iter|    rms[Rho]|   rms[RhoU]|   rms[RhoV]|   rms[RhoE]|          CL|          CD|
+-------------------------------------------------------------------------------------------------------+
|           0|           0|   -1.663893|    0.504393|   -0.366107|    3.805207|    2.090086|    0.939782|
|           1|           0|   -1.772101|    0.413924|   -0.139746|    3.697294|    3.639793|    1.622456|
|           2|           0|   -1.775023|    0.444996|    0.049646|    3.696132|    4.720945|    2.082704|
|           3|           0|   -1.720797|    0.530163|    0.166344|    3.751155|    5.416821|    2.359008|
|           4|           0|   -1.658027|    0.626043|    0.261887|    3.814302|    5.805767|    2.487998|
|           5|           0|   -1.599665|    0.722553|    0.354096|    3.873216|    5.958653|    2.503931|
|           6|           0|   -1.546014|    0.817357|    0.447301|    3.927648|    5.936157|    2.437028|
|           7|           0|   -1.496053|    0.908636|    0.541067|    3.978511|    5.789267|    2.312931|
|           8|           0|   -1.449560|    0.994868|    0.633906|    4.025921|    5.560745|    2.153179|
|           9|           0|   -1.406884|    1.074888|    0.724271|    4.069427|    5.285261|    1.975355|
|          10|           0|   -1.368807|    1.148091|    0.810957|    4.108188|    4.987833|    1.792509|
+-----------------------------------------------------------------------+
|        File Writing Summary       |              Filename             |
+-----------------------------------------------------------------------+
|SU2 restart                        |solution_flow.dat                  |
|Paraview                           |flow.vtu                           |
|Paraview surface                   |surface_flow.vtu                   |
+-----------------------------------------------------------------------+

Writing the forces breakdown file (forces_breakdown.dat).
+-------------------------------------------------------------------------------------------------------+
|  Inner_Iter|   Time_Iter|    rms[Rho]|   rms[RhoU]|   rms[RhoV]|   rms[RhoE]|          CL|          CD|
+-------------------------------------------------------------------------------------------------------+
|          11|           0|   -1.335774|    1.214312|    0.892993|    4.141690|    4.685034|    1.613335|
|          12|           0|   -1.308349|    1.273478|    0.969709|    4.169274|    4.387738|    1.443503|
|          13|           0|   -1.286787|    1.325709|    1.040576|    4.190570|    4.102144|    1.286078|
|          14|           0|   -1.271070|    1.371166|    1.105217|    4.205432|    3.830637|    1.141990|
|          15|           0|   -1.261030|    1.410022|    1.163509|    4.213837|    3.572972|    1.010750|
|          16|           0|   -1.256111|    1.442448|    1.215368|    4.216073|    3.327228|    0.890992|
|          17|           0|   -1.255225|    1.468574|    1.260812|    4.212962|    3.090672|    0.780913|
|          18|           0|   -1.256597|    1.488611|    1.299851|    4.206120|    2.860327|    0.678605|
|          19|           0|   -1.257711|    1.502702|    1.332476|    4.198187|    2.633461|    0.582292|
|          20|           0|   -1.255742|    1.511108|    1.358866|    4.192688|    2.407887|    0.490488|
+-----------------------------------------------------------------------+
|        File Writing Summary       |              Filename             |
+-----------------------------------------------------------------------+
|SU2 restart                        |solution_flow.dat                  |
|Paraview                           |flow.vtu                           |
|Paraview surface                   |surface_flow.vtu                   |
+-----------------------------------------------------------------------+

Writing the forces breakdown file (forces_breakdown.dat).
+-------------------------------------------------------------------------------------------------------+
|  Inner_Iter|   Time_Iter|    rms[Rho]|   rms[RhoU]|   rms[RhoV]|   rms[RhoE]|          CL|          CD|
+-------------------------------------------------------------------------------------------------------+
|          21|           0|   -1.248118|    1.514044|    1.379111|    4.193569|    2.182122|    0.402065|
|          22|           0|   -1.233192|    1.511970|    1.393432|    4.204146|    1.955550|    0.316301|
|          23|           0|   -1.211650|    1.505671|    1.402007|    4.224684|    1.728346|    0.232859|
|          24|           0|   -1.185857|    1.495371|    1.405278|    4.252431|    1.501457|    0.151763|
|          25|           0|   -1.158756|    1.481948|    1.403630|    4.283427|    1.276415|    0.073317|
|          26|           0|   -1.133044|    1.466511|    1.397487|    4.313907|    1.055220|   -0.001968|
|          27|           0|   -1.110733|    1.450147|    1.387299|    4.341018|    0.840157|   -0.073456|
|          28|           0|   -1.093063|    1.433679|    1.374014|    4.363047|    0.633604|   -0.140469|
|          29|           0|   -1.080336|    1.417675|    1.358075|    4.379493|    0.437928|   -0.202320|
|          30|           0|   -1.072719|    1.402568|    1.340135|    4.389994|    0.255347|   -0.258383|
+-----------------------------------------------------------------------+
|        File Writing Summary       |              Filename             |
+-----------------------------------------------------------------------+
|SU2 restart                        |solution_flow.dat                  |
|Paraview                           |flow.vtu                           |
|Paraview surface                   |surface_flow.vtu                   |
+-----------------------------------------------------------------------+

Writing the forces breakdown file (forces_breakdown.dat).
+-------------------------------------------------------------------------------------------------------+
|  Inner_Iter|   Time_Iter|    rms[Rho]|   rms[RhoU]|   rms[RhoV]|   rms[RhoE]|          CL|          CD|
+-------------------------------------------------------------------------------------------------------+
|          31|           0|   -1.069256|    1.388632|    1.320507|    4.395412|    0.087893|   -0.308110|
|          32|           0|   -1.068885|    1.376779|    1.300033|    4.396715|   -0.062649|   -0.351058|
|          33|           0|   -1.070179|    1.368276|    1.279186|    4.395353|   -0.194763|   -0.386901|
|          34|           0|   -1.070608|    1.363574|    1.259026|    4.393751|   -0.307215|   -0.415418|
|          35|           0|   -1.068362|    1.363529|    1.240636|    4.394002|   -0.399055|   -0.436493|
|          36|           0|   -1.062988|    1.369188|    1.227412|    4.397052|   -0.469602|   -0.450110|
|          37|           0|   -1.054188|    1.381988|    1.222266|    4.403702|   -0.518437|   -0.456336|
|          38|           0|   -1.043218|    1.401935|    1.229289|    4.412864|   -0.545367|   -0.455306|
|          39|           0|   -1.031410|    1.427503|    1.249580|    4.423532|   -0.550394|   -0.447206|
|          40|           0|   -1.020732|    1.455201|    1.281003|    4.433510|   -0.533733|   -0.432281|
+-----------------------------------------------------------------------+
|        File Writing Summary       |              Filename             |
+-----------------------------------------------------------------------+
|SU2 restart                        |solution_flow.dat                  |
|Paraview                           |flow.vtu                           |
|Paraview surface                   |surface_flow.vtu                   |
+-----------------------------------------------------------------------+

Writing the forces breakdown file (forces_breakdown.dat).
+-------------------------------------------------------------------------------------------------------+
|  Inner_Iter|   Time_Iter|    rms[Rho]|   rms[RhoU]|   rms[RhoV]|   rms[RhoE]|          CL|          CD|
+-------------------------------------------------------------------------------------------------------+
|          41|           0|   -1.013352|    1.482622|    1.320344|    4.440335|   -0.495827|   -0.410827|
|          42|           0|   -1.010349|    1.508806|    1.362934|    4.442763|   -0.437312|   -0.383179|
|          43|           0|   -1.011857|    1.531745|    1.404214|    4.440223|   -0.359025|   -0.349719|
|          44|           0|   -1.017739|    1.549840|    1.441536|    4.432673|   -0.262006|   -0.310879|
|          45|           0|   -1.027929|    1.562840|    1.473158|    4.420145|   -0.147490|   -0.267132|
|          46|           0|   -1.039096|    1.569697|    1.497925|    4.405788|   -0.016928|   -0.219003|
|          47|           0|   -1.050294|    1.570895|    1.515647|    4.391018|    0.128002|   -0.167071|
|          48|           0|   -1.058997|    1.565847|    1.526498|    4.378801|    0.285451|   -0.111958|
|          49|           0|   -1.062112|    1.554849|    1.530572|    4.373258|    0.453420|   -0.054327|
|          50|           0|   -1.059027|    1.537118|    1.527632|    4.375461|    0.629755|    0.005118|
+-----------------------------------------------------------------------+
|        File Writing Summary       |              Filename             |
+-----------------------------------------------------------------------+
|SU2 restart                        |solution_flow.dat                  |
|Paraview                           |flow.vtu                           |
|Paraview surface                   |surface_flow.vtu                   |
+-----------------------------------------------------------------------+

Writing the forces breakdown file (forces_breakdown.dat).
+-------------------------------------------------------------------------------------------------------+
|  Inner_Iter|   Time_Iter|    rms[Rho]|   rms[RhoU]|   rms[RhoV]|   rms[RhoE]|          CL|          CD|
+-------------------------------------------------------------------------------------------------------+
|          51|           0|   -1.050829|    1.513356|    1.518396|    4.384796|    0.812184|    0.065642|
|          52|           0|   -1.038699|    1.484118|    1.502834|    4.399952|    0.998372|    0.126484|
|          53|           0|   -1.025235|    1.451523|    1.482435|    4.417502|    1.185943|    0.186878|
|          54|           0|   -1.012913|    1.418479|    1.458671|    4.434370|    1.372474|    0.246051|
|          55|           0|   -1.003475|    1.388400|    1.433336|    4.448219|    1.555590|    0.303246|
|          56|           0|   -0.997775|    1.364853|    1.409396|    4.457930|    1.732969|    0.357729|
|          57|           0|   -0.995904|    1.352798|    1.390548|    4.463259|    1.902410|    0.408813|
|          58|           0|   -0.999489|    1.352066|    1.380865|    4.462246|    2.061855|    0.455861|
|          59|           0|   -1.007324|    1.362004|    1.382474|    4.456128|    2.209407|    0.498301|
|          60|           0|   -1.019043|    1.378953|    1.394136|    4.445045|    2.343377|    0.535640|
+-----------------------------------------------------------------------+
|        File Writing Summary       |              Filename             |
+-----------------------------------------------------------------------+
|SU2 restart                        |solution_flow.dat                  |
|Paraview                           |flow.vtu                           |
|Paraview surface                   |surface_flow.vtu                   |
+-----------------------------------------------------------------------+

Writing the forces breakdown file (forces_breakdown.dat).
+-------------------------------------------------------------------------------------------------------+
|  Inner_Iter|   Time_Iter|    rms[Rho]|   rms[RhoU]|   rms[RhoV]|   rms[RhoE]|          CL|          CD|
+-------------------------------------------------------------------------------------------------------+
|          61|           0|   -1.033848|    1.399755|    1.412888|    4.429526|    2.462327|    0.567469|
|          62|           0|   -1.050165|    1.421348|    1.435320|    4.410801|    2.565084|    0.593478|
|          63|           0|   -1.066576|    1.441281|    1.458152|    4.390124|    2.650759|    0.613455|
|          64|           0|   -1.081938|    1.459147|    1.479398|    4.368688|    2.718749|    0.627287|
|          65|           0|   -1.096354|    1.473672|    1.497495|    4.346606|    2.768746|    0.634969|
|          66|           0|   -1.107735|    1.483941|    1.511792|    4.326693|    2.800728|    0.636587|
|          67|           0|   -1.115234|    1.489740|    1.521916|    4.310603|    2.814965|    0.632327|
|          68|           0|   -1.119945|    1.491694|    1.527853|    4.298295|    2.811991|    0.622464|
|          69|           0|   -1.122706|    1.490012|    1.529425|    4.289923|    2.792589|    0.607353|
|          70|           0|   -1.124529|    1.484249|    1.526560|    4.284886|    2.757774|    0.587426|
+-----------------------------------------------------------------------+
|        File Writing Summary       |              Filename             |
+-----------------------------------------------------------------------+
|SU2 restart                        |solution_flow.dat                  |
|Paraview                           |flow.vtu                           |
|Paraview surface                   |surface_flow.vtu                   |
+-----------------------------------------------------------------------+

Writing the forces breakdown file (forces_breakdown.dat).
+-------------------------------------------------------------------------------------------------------+
|  Inner_Iter|   Time_Iter|    rms[Rho]|   rms[RhoU]|   rms[RhoV]|   rms[RhoE]|          CL|          CD|
+-------------------------------------------------------------------------------------------------------+
|          71|           0|   -1.125523|    1.474286|    1.519447|    4.283529|    2.708753|    0.563172|
|          72|           0|   -1.126868|    1.460714|    1.508212|    4.283989|    2.646905|    0.535136|
|          73|           0|   -1.128201|    1.443267|    1.493078|    4.286482|    2.573741|    0.503900|
|          74|           0|   -1.129860|    1.421889|    1.474626|    4.290032|    2.490856|    0.470065|
|          75|           0|   -1.132454|    1.396572|    1.453098|    4.293366|    2.399935|    0.434250|
|          76|           0|   -1.136352|    1.367915|    1.429079|    4.295616|    2.302698|    0.397073|
|          77|           0|   -1.141810|    1.336417|    1.403068|    4.296105|    2.200874|    0.359146|
|          78|           0|   -1.148984|    1.303957|    1.376885|    4.294322|    2.096169|    0.321053|
|          79|           0|   -1.158500|    1.271512|    1.352005|    4.289528|    1.990222|    0.283348|
|          80|           0|   -1.169663|    1.241457|    1.329591|    4.282390|    1.884585|    0.246547|
+-----------------------------------------------------------------------+
|        File Writing Summary       |              Filename             |
+-----------------------------------------------------------------------+
|SU2 restart                        |solution_flow.dat                  |
|Paraview                           |flow.vtu                           |
|Paraview surface                   |surface_flow.vtu                   |
+-----------------------------------------------------------------------+

Writing the forces breakdown file (forces_breakdown.dat).
+-------------------------------------------------------------------------------------------------------+
|  Inner_Iter|   Time_Iter|    rms[Rho]|   rms[RhoU]|   rms[RhoV]|   rms[RhoE]|          CL|          CD|
+-------------------------------------------------------------------------------------------------------+
|          81|           0|   -1.182740|    1.216711|    1.310825|    4.272568|    1.780712|    0.211115|
|          82|           0|   -1.197354|    1.198394|    1.296669|    4.260161|    1.679952|    0.177472|
|          83|           0|   -1.212672|    1.188387|    1.287575|    4.246033|    1.583532|    0.145983|
|          84|           0|   -1.228578|    1.187534|    1.283121|    4.230302|    1.492533|    0.116958|
|          85|           0|   -1.245132|    1.194637|    1.282275|    4.212798|    1.407888|    0.090645|
|          86|           0|   -1.261923|    1.207787|    1.283790|    4.193913|    1.330390|    0.067237|
|          87|           0|   -1.279121|    1.223906|    1.286506|    4.173462|    1.260672|    0.046867|
|          88|           0|   -1.296286|    1.240291|    1.289556|    4.151875|    1.199220|    0.029613|
|          89|           0|   -1.312608|    1.256815|    1.292150|    4.130241|    1.146388|    0.015504|
|          90|           0|   -1.327685|    1.271635|    1.293889|    4.109339|    1.102395|    0.004522|
+-----------------------------------------------------------------------+
|        File Writing Summary       |              Filename             |
+-----------------------------------------------------------------------+
|SU2 restart                        |solution_flow.dat                  |
|Paraview                           |flow.vtu                           |
|Paraview surface                   |surface_flow.vtu                   |
+-----------------------------------------------------------------------+

Writing the forces breakdown file (forces_breakdown.dat).
+-------------------------------------------------------------------------------------------------------+
|  Inner_Iter|   Time_Iter|    rms[Rho]|   rms[RhoU]|   rms[RhoV]|   rms[RhoE]|          CL|          CD|
+-------------------------------------------------------------------------------------------------------+
|          91|           0|   -1.341227|    1.284152|    1.294271|    4.089624|    1.067340|   -0.003393|
|          92|           0|   -1.352933|    1.293846|    1.293160|    4.071625|    1.041212|   -0.008339|
|          93|           0|   -1.362799|    1.300969|    1.290558|    4.055818|    1.023891|   -0.010441|
|          94|           0|   -1.371056|    1.305967|    1.286528|    4.042427|    1.015159|   -0.009856|
|          95|           0|   -1.378308|    1.308210|    1.281228|    4.030964|    1.014709|   -0.006769|
|          96|           0|   -1.385573|    1.307681|    1.274620|    4.020491|    1.022150|   -0.001383|
|          97|           0|   -1.393219|    1.305285|    1.266707|    4.010710|    1.037052|    0.006091|
|          98|           0|   -1.401476|    1.301079|    1.257860|    4.001266|    1.058910|    0.015432|
|          99|           0|   -1.410487|    1.294688|    1.247713|    3.991990|    1.087195|    0.026410|
|         100|           0|   -1.420519|    1.286474|    1.236414|    3.982621|    1.121362|    0.038804|
+-----------------------------------------------------------------------+
|        File Writing Summary       |              Filename             |
+-----------------------------------------------------------------------+
|SU2 restart                        |solution_flow.dat                  |
|Paraview                           |flow.vtu                           |
|Paraview surface                   |surface_flow.vtu                   |
+-----------------------------------------------------------------------+

Writing the forces breakdown file (forces_breakdown.dat).
+-------------------------------------------------------------------------------------------------------+
|  Inner_Iter|   Time_Iter|    rms[Rho]|   rms[RhoU]|   rms[RhoV]|   rms[RhoE]|          CL|          CD|
+-------------------------------------------------------------------------------------------------------+
|         101|           0|   -1.431329|    1.276279|    1.224144|    3.973439|    1.160794|    0.052380|
|         102|           0|   -1.442144|    1.263924|    1.211144|    3.965360|    1.204870|    0.066911|
|         103|           0|   -1.453007|    1.249791|    1.197752|    3.958199|    1.252938|    0.082174|
|         104|           0|   -1.464516|    1.234431|    1.183995|    3.951054|    1.304331|    0.097947|
|         105|           0|   -1.475896|    1.217175|    1.169901|    3.944667|    1.358385|    0.114022|
|         106|           0|   -1.487148|    1.198026|    1.155592|    3.938932|    1.414422|    0.130195|
|         107|           0|   -1.498300|    1.177917|    1.141132|    3.933480|    1.471784|    0.146278|
|         108|           0|   -1.509485|    1.157507|    1.126740|    3.928062|    1.529811|    0.162089|
|         109|           0|   -1.520564|    1.137361|    1.112486|    3.922654|    1.587859|    0.177460|
|         110|           0|   -1.531725|    1.118191|    1.098657|    3.916771|    1.645321|    0.192239|
+-----------------------------------------------------------------------+
|        File Writing Summary       |              Filename             |
+-----------------------------------------------------------------------+
|SU2 restart                        |solution_flow.dat                  |
|Paraview                           |flow.vtu                           |
|Paraview surface                   |surface_flow.vtu                   |
+-----------------------------------------------------------------------+

Writing the forces breakdown file (forces_breakdown.dat).
+-------------------------------------------------------------------------------------------------------+
|  Inner_Iter|   Time_Iter|    rms[Rho]|   rms[RhoU]|   rms[RhoV]|   rms[RhoE]|          CL|          CD|
+-------------------------------------------------------------------------------------------------------+
|         111|           0|   -1.542631|    1.100784|    1.085569|    3.910508|    1.701602|    0.206287|
|         112|           0|   -1.553880|    1.085648|    1.073812|    3.903144|    1.756141|    0.219477|
|         113|           0|   -1.564388|    1.073586|    1.063762|    3.895687|    1.808401|    0.231699|
|         114|           0|   -1.573880|    1.065094|    1.055710|    3.888273|    1.857889|    0.242856|
|         115|           0|   -1.582623|    1.060552|    1.049952|    3.880500|    1.904150|    0.252867|
|         116|           0|   -1.590547|    1.059895|    1.046548|    3.872423|    1.946782|    0.261667|
|         117|           0|   -1.597482|    1.062553|    1.045330|    3.864181|    1.985437|    0.269211|
|         118|           0|   -1.603766|    1.068256|    1.046177|    3.855435|    2.019812|    0.275464|
|         119|           0|   -1.609272|    1.076519|    1.048683|    3.846498|    2.049643|    0.280403|
|         120|           0|   -1.614514|    1.086331|    1.052417|    3.836965|    2.074741|    0.284023|
+-----------------------------------------------------------------------+
|        File Writing Summary       |              Filename             |
+-----------------------------------------------------------------------+
|SU2 restart                        |solution_flow.dat                  |
|Paraview                           |flow.vtu                           |
|Paraview surface                   |surface_flow.vtu                   |
+-----------------------------------------------------------------------+

Writing the forces breakdown file (forces_breakdown.dat).
+-------------------------------------------------------------------------------------------------------+
|  Inner_Iter|   Time_Iter|    rms[Rho]|   rms[RhoU]|   rms[RhoV]|   rms[RhoE]|          CL|          CD|
+-------------------------------------------------------------------------------------------------------+
|         121|           0|   -1.619218|    1.096603|    1.056946|    3.827185|    2.094962|    0.286332|
|         122|           0|   -1.624298|    1.106596|    1.061773|    3.816459|    2.110208|    0.287347|
|         123|           0|   -1.629571|    1.116052|    1.066490|    3.805231|    2.120437|    0.287099|
|         124|           0|   -1.634996|    1.124611|    1.070659|    3.793848|    2.125669|    0.285631|
|         125|           0|   -1.640865|    1.131973|    1.073819|    3.782306|    2.125972|    0.282996|
|         126|           0|   -1.646345|    1.136392|    1.075652|    3.771244|    2.121483|    0.279263|
|         127|           0|   -1.651429|    1.138616|    1.075797|    3.761220|    2.112414|    0.274517|
|         128|           0|   -1.655839|    1.138406|    1.073853|    3.752851|    2.099003|    0.268847|
|         129|           0|   -1.659224|    1.135970|    1.069562|    3.746982|    2.081528|    0.262348|
|         130|           0|   -1.661616|    1.131000|    1.062566|    3.743775|    2.060328|    0.255128|
+-----------------------------------------------------------------------+
|        File Writing Summary       |              Filename             |
+-----------------------------------------------------------------------+
|SU2 restart                        |solution_flow.dat                  |
|Paraview                           |flow.vtu                           |
|Paraview surface                   |surface_flow.vtu                   |
+-----------------------------------------------------------------------+

Writing the forces breakdown file (forces_breakdown.dat).
+-------------------------------------------------------------------------------------------------------+
|  Inner_Iter|   Time_Iter|    rms[Rho]|   rms[RhoU]|   rms[RhoV]|   rms[RhoE]|          CL|          CD|
+-------------------------------------------------------------------------------------------------------+
|         131|           0|   -1.662698|    1.123393|    1.052779|    3.743633|    2.035775|    0.247297|
|         132|           0|   -1.662793|    1.113302|    1.040100|    3.746109|    2.008266|    0.238971|
|         133|           0|   -1.661975|    1.100828|    1.024272|    3.750940|    1.978224|    0.230266|
|         134|           0|   -1.660762|    1.086071|    1.005222|    3.757192|    1.946090|    0.221302|
|         135|           0|   -1.659019|    1.070068|    0.983184|    3.764956|    1.912323|    0.212199|
|         136|           0|   -1.657624|    1.051835|    0.957646|    3.772520|    1.877387|    0.203075|
|         137|           0|   -1.656663|    1.031730|    0.928955|    3.779762|    1.841752|    0.194045|
|         138|           0|   -1.656158|    1.010489|    0.897489|    3.786468|    1.805890|    0.185217|
|         139|           0|   -1.656016|    0.989204|    0.863909|    3.792573|    1.770266|    0.176698|
|         140|           0|   -1.657059|    0.968709|    0.829317|    3.797001|    1.735331|    0.168584|
+-----------------------------------------------------------------------+
|        File Writing Summary       |              Filename             |
+-----------------------------------------------------------------------+
|SU2 restart                        |solution_flow.dat                  |
|Paraview                           |flow.vtu                           |
|Paraview surface                   |surface_flow.vtu                   |
+-----------------------------------------------------------------------+

Writing the forces breakdown file (forces_breakdown.dat).
+-------------------------------------------------------------------------------------------------------+
|  Inner_Iter|   Time_Iter|    rms[Rho]|   rms[RhoU]|   rms[RhoV]|   rms[RhoE]|          CL|          CD|
+-------------------------------------------------------------------------------------------------------+
|         141|           0|   -1.659519|    0.950122|    0.795455|    3.799171|    1.701506|    0.160962|
|         142|           0|   -1.663213|    0.935037|    0.764772|    3.799319|    1.669186|    0.153909|
|         143|           0|   -1.667900|    0.924320|    0.740312|    3.797667|    1.638745|    0.147495|
|         144|           0|   -1.674167|    0.918619|    0.724997|    3.793558|    1.610519|    0.141778|
|         145|           0|   -1.681345|    0.917876|    0.720567|    3.787622|    1.584820|    0.136805|
|         146|           0|   -1.689528|    0.921128|    0.726688|    3.779437|    1.561918|    0.132616|
|         147|           0|   -1.698434|    0.927961|    0.741295|    3.769396|    1.542054|    0.129235|
|         148|           0|   -1.707727|    0.937395|    0.761352|    3.757753|    1.525413|    0.126676|
|         149|           0|   -1.717046|    0.948130|    0.784072|    3.744686|    1.512121|    0.124934|
|         150|           0|   -1.726116|    0.958957|    0.807250|    3.730373|    1.502250|    0.123989|
+-----------------------------------------------------------------------+
|        File Writing Summary       |              Filename             |
+-----------------------------------------------------------------------+
|SU2 restart                        |solution_flow.dat                  |
|Paraview                           |flow.vtu                           |
|Paraview surface                   |surface_flow.vtu                   |
+-----------------------------------------------------------------------+

Writing the forces breakdown file (forces_breakdown.dat).
+-------------------------------------------------------------------------------------------------------+
|  Inner_Iter|   Time_Iter|    rms[Rho]|   rms[RhoU]|   rms[RhoV]|   rms[RhoE]|          CL|          CD|
+-------------------------------------------------------------------------------------------------------+
|         151|           0|   -1.734344|    0.969496|    0.829367|    3.715518|    1.495841|    0.123820|
|         152|           0|   -1.741242|    0.979084|    0.849318|    3.700781|    1.492890|    0.124391|
|         153|           0|   -1.746120|    0.987422|    0.866662|    3.687293|    1.493331|    0.125655|
|         154|           0|   -1.749171|    0.994033|    0.880989|    3.675364|    1.497087|    0.127565|
|         155|           0|   -1.750411|    0.998487|    0.892167|    3.665588|    1.504030|    0.130061|
|         156|           0|   -1.750054|    1.000861|    0.900113|    3.658440|    1.513999|    0.133083|
|         157|           0|   -1.748369|    1.001177|    0.904881|    3.654150|    1.526795|    0.136562|
|         158|           0|   -1.746195|    0.998972|    0.906596|    3.651998|    1.542192|    0.140427|
|         159|           0|   -1.743930|    0.994287|    0.905330|    3.651790|    1.559938|    0.144606|
|         160|           0|   -1.741471|    0.987376|    0.901119|    3.653756|    1.579770|    0.149022|
+-----------------------------------------------------------------------+
|        File Writing Summary       |              Filename             |
+-----------------------------------------------------------------------+
|SU2 restart                        |solution_flow.dat                  |
|Paraview                           |flow.vtu                           |
|Paraview surface                   |surface_flow.vtu                   |
+-----------------------------------------------------------------------+

Writing the forces breakdown file (forces_breakdown.dat).
+-------------------------------------------------------------------------------------------------------+
|  Inner_Iter|   Time_Iter|    rms[Rho]|   rms[RhoU]|   rms[RhoV]|   rms[RhoE]|          CL|          CD|
+-------------------------------------------------------------------------------------------------------+
|         161|           0|   -1.739370|    0.978196|    0.893905|    3.657031|    1.601398|    0.153603|
|         162|           0|   -1.738091|    0.966954|    0.883677|    3.660793|    1.624523|    0.158276|
|         163|           0|   -1.737541|    0.953603|    0.870655|    3.664964|    1.648832|    0.162966|
|         164|           0|   -1.737902|    0.937862|    0.855291|    3.669121|    1.674011|    0.167608|
|         165|           0|   -1.739581|    0.920080|    0.837387|    3.672570|    1.699734|    0.172137|
|         166|           0|   -1.742626|    0.900362|    0.817039|    3.675024|    1.725682|    0.176490|
|         167|           0|   -1.746879|    0.879102|    0.794404|    3.676439|    1.751536|    0.180610|
|         168|           0|   -1.752200|    0.856619|    0.769761|    3.676905|    1.776992|    0.184443|
|         169|           0|   -1.758432|    0.833645|    0.743726|    3.676463|    1.801744|    0.187943|
|         170|           0|   -1.765406|    0.810803|    0.717129|    3.675085|    1.825520|    0.191073|
+-----------------------------------------------------------------------+
|        File Writing Summary       |              Filename             |
+-----------------------------------------------------------------------+
|SU2 restart                        |solution_flow.dat                  |
|Paraview                           |flow.vtu                           |
|Paraview surface                   |surface_flow.vtu                   |
+-----------------------------------------------------------------------+

Writing the forces breakdown file (forces_breakdown.dat).
+-------------------------------------------------------------------------------------------------------+
|  Inner_Iter|   Time_Iter|    rms[Rho]|   rms[RhoU]|   rms[RhoV]|   rms[RhoE]|          CL|          CD|
+-------------------------------------------------------------------------------------------------------+
|         171|           0|   -1.772934|    0.788810|    0.691051|    3.672829|    1.848061|    0.193799|
|         172|           0|   -1.780810|    0.768839|    0.666738|    3.669758|    1.869143|    0.196101|
|         173|           0|   -1.788788|    0.752427|    0.645684|    3.665933|    1.888536|    0.197954|
|         174|           0|   -1.796884|    0.740628|    0.629546|    3.661145|    1.906042|    0.199343|
|         175|           0|   -1.805204|    0.734244|    0.619673|    3.655135|    1.921489|    0.200261|
|         176|           0|   -1.813706|    0.733366|    0.616676|    3.647755|    1.934727|    0.200702|
|         177|           0|   -1.821968|    0.737558|    0.620439|    3.639400|    1.945634|    0.200672|
|         178|           0|   -1.829686|    0.746055|    0.629858|    3.630361|    1.954138|    0.200181|
|         179|           0|   -1.837025|    0.757498|    0.643345|    3.620395|    1.960192|    0.199248|
|         180|           0|   -1.843490|    0.770944|    0.659299|    3.610108|    1.963780|    0.197897|
+-----------------------------------------------------------------------+
|        File Writing Summary       |              Filename             |
+-----------------------------------------------------------------------+
|SU2 restart                        |solution_flow.dat                  |
|Paraview                           |flow.vtu                           |
|Paraview surface                   |surface_flow.vtu                   |
+-----------------------------------------------------------------------+

Writing the forces breakdown file (forces_breakdown.dat).
+-------------------------------------------------------------------------------------------------------+
|  Inner_Iter|   Time_Iter|    rms[Rho]|   rms[RhoU]|   rms[RhoV]|   rms[RhoE]|          CL|          CD|
+-------------------------------------------------------------------------------------------------------+
|         181|           0|   -1.849401|    0.784699|    0.676279|    3.599217|    1.964930|    0.196160|
|         182|           0|   -1.854721|    0.798297|    0.693069|    3.587992|    1.963680|    0.194067|
|         183|           0|   -1.859527|    0.810834|    0.708864|    3.576469|    1.960117|    0.191660|
|         184|           0|   -1.864486|    0.821623|    0.723075|    3.564125|    1.954338|    0.188975|
|         185|           0|   -1.868983|    0.830739|    0.735067|    3.552064|    1.946466|    0.186057|
|         186|           0|   -1.872602|    0.837599|    0.744653|    3.541052|    1.936661|    0.182952|
|         187|           0|   -1.875382|    0.842150|    0.751596|    3.531616|    1.925103|    0.179711|
|         188|           0|   -1.877497|    0.844248|    0.755851|    3.523955|    1.911977|    0.176379|
|         189|           0|   -1.879118|    0.843590|    0.757208|    3.518140|    1.897483|    0.173003|
|         190|           0|   -1.880164|    0.840186|    0.755723|    3.514533|    1.881847|    0.169633|
+-----------------------------------------------------------------------+
|        File Writing Summary       |              Filename             |
+-----------------------------------------------------------------------+
|SU2 restart                        |solution_flow.dat                  |
|Paraview                           |flow.vtu                           |
|Paraview surface                   |surface_flow.vtu                   |
+-----------------------------------------------------------------------+

Writing the forces breakdown file (forces_breakdown.dat).
+-------------------------------------------------------------------------------------------------------+
|  Inner_Iter|   Time_Iter|    rms[Rho]|   rms[RhoU]|   rms[RhoV]|   rms[RhoE]|          CL|          CD|
+-------------------------------------------------------------------------------------------------------+
|         191|           0|   -1.880961|    0.833890|    0.751289|    3.512832|    1.865294|    0.166315|
|         192|           0|   -1.881819|    0.825004|    0.743978|    3.512745|    1.848051|    0.163092|
|         193|           0|   -1.882800|    0.813381|    0.733475|    3.513999|    1.830364|    0.160012|
|         194|           0|   -1.884123|    0.798932|    0.720005|    3.516164|    1.812461|    0.157112|
|         195|           0|   -1.885983|    0.781588|    0.703548|    3.518766|    1.794574|    0.154430|
|         196|           0|   -1.888639|    0.761356|    0.684204|    3.521288|    1.776929|    0.151999|
|         197|           0|   -1.891562|    0.738443|    0.662082|    3.524213|    1.759738|    0.149844|
|         198|           0|   -1.895053|    0.713182|    0.637363|    3.526908|    1.743193|    0.147983|
|         199|           0|   -1.899190|    0.685887|    0.610503|    3.529071|    1.727483|    0.146437|
|         200|           0|   -1.904140|    0.656994|    0.582134|    3.530221|    1.712774|    0.145214|
+-----------------------------------------------------------------------+
|        File Writing Summary       |              Filename             |
+-----------------------------------------------------------------------+
|SU2 restart                        |solution_flow.dat                  |
|Paraview                           |flow.vtu                           |
|Paraview surface                   |surface_flow.vtu                   |
+-----------------------------------------------------------------------+

Writing the forces breakdown file (forces_breakdown.dat).
+-------------------------------------------------------------------------------------------------------+
|  Inner_Iter|   Time_Iter|    rms[Rho]|   rms[RhoU]|   rms[RhoV]|   rms[RhoE]|          CL|          CD|
+-------------------------------------------------------------------------------------------------------+
|         201|           0|   -1.909775|    0.627264|    0.553308|    3.530360|    1.699219|    0.144325|
|         202|           0|   -1.916024|    0.597644|    0.525495|    3.529363|    1.686957|    0.143773|
|         203|           0|   -1.922807|    0.570272|    0.500370|    3.527240|    1.676120|    0.143561|
|         204|           0|   -1.930440|    0.547028|    0.480026|    3.523491|    1.666814|    0.143682|
|         205|           0|   -1.938648|    0.529838|    0.466438|    3.518304|    1.659125|    0.144129|
|         206|           0|   -1.947326|    0.520072|    0.460980|    3.511698|    1.653127|    0.144890|
|         207|           0|   -1.955981|    0.518120|    0.463784|    3.504048|    1.648863|    0.145950|
|         208|           0|   -1.964525|    0.523511|    0.473621|    3.495317|    1.646362|    0.147290|
|         209|           0|   -1.973127|    0.534616|    0.488593|    3.485218|    1.645625|    0.148889|
|         210|           0|   -1.981469|    0.549752|    0.506643|    3.474086|    1.646640|    0.150719|
+-----------------------------------------------------------------------+
|        File Writing Summary       |              Filename             |
+-----------------------------------------------------------------------+
|SU2 restart                        |solution_flow.dat                  |
|Paraview                           |flow.vtu                           |
|Paraview surface                   |surface_flow.vtu                   |
+-----------------------------------------------------------------------+

Writing the forces breakdown file (forces_breakdown.dat).
+-------------------------------------------------------------------------------------------------------+
|  Inner_Iter|   Time_Iter|    rms[Rho]|   rms[RhoU]|   rms[RhoV]|   rms[RhoE]|          CL|          CD|
+-------------------------------------------------------------------------------------------------------+
|         211|           0|   -1.989378|    0.566851|    0.525821|    3.462175|    1.649374|    0.152755|
|         212|           0|   -1.997266|    0.583235|    0.544531|    3.449028|    1.653776|    0.154966|
|         213|           0|   -2.003923|    0.599042|    0.561877|    3.436120|    1.659775|    0.157321|
|         214|           0|   -2.009186|    0.613497|    0.577216|    3.423929|    1.667282|    0.159786|
|         215|           0|   -2.013092|    0.625986|    0.590143|    3.412840|    1.676193|    0.162327|
|         216|           0|   -2.015799|    0.636246|    0.600415|    3.403056|    1.686387|    0.164909|
|         217|           0|   -2.017587|    0.644116|    0.607926|    3.394690|    1.697738|    0.167498|
|         218|           0|   -2.018803|    0.649652|    0.612635|    3.387803|    1.710096|    0.170059|
|         219|           0|   -2.019513|    0.652661|    0.614466|    3.382641|    1.723310|    0.172558|
|         220|           0|   -2.020035|    0.652932|    0.613580|    3.379067|    1.737213|    0.174963|
+-----------------------------------------------------------------------+
|        File Writing Summary       |              Filename             |
+-----------------------------------------------------------------------+
|SU2 restart                        |solution_flow.dat                  |
|Paraview                           |flow.vtu                           |
|Paraview surface                   |surface_flow.vtu                   |
+-----------------------------------------------------------------------+

Writing the forces breakdown file (forces_breakdown.dat).
+-------------------------------------------------------------------------------------------------------+
|  Inner_Iter|   Time_Iter|    rms[Rho]|   rms[RhoU]|   rms[RhoV]|   rms[RhoE]|          CL|          CD|
+-------------------------------------------------------------------------------------------------------+
|         221|           0|   -2.020689|    0.650545|    0.609949|    3.376779|    1.751642|    0.177242|
|         222|           0|   -2.021440|    0.645369|    0.603555|    3.375834|    1.766420|    0.179365|
|         223|           0|   -2.022226|    0.637418|    0.594361|    3.376339|    1.781378|    0.181308|
|         224|           0|   -2.023257|    0.626665|    0.582188|    3.377958|    1.796338|    0.183044|
|         225|           0|   -2.024903|    0.613375|    0.567282|    3.380008|    1.811128|    0.184552|
|         226|           0|   -2.027351|    0.597782|    0.549760|    3.382054|    1.825578|    0.185814|
|         227|           0|   -2.030740|    0.580016|    0.529740|    3.383725|    1.839527|    0.186814|
|         228|           0|   -2.035035|    0.560274|    0.507415|    3.384825|    1.852822|    0.187541|
|         229|           0|   -2.040315|    0.539014|    0.483168|    3.385116|    1.865322|    0.187989|
|         230|           0|   -2.046539|    0.516832|    0.457332|    3.384495|    1.876886|    0.188150|
+-----------------------------------------------------------------------+
|        File Writing Summary       |              Filename             |
+-----------------------------------------------------------------------+
|SU2 restart                        |solution_flow.dat                  |
|Paraview                           |flow.vtu                           |
|Paraview surface                   |surface_flow.vtu                   |
+-----------------------------------------------------------------------+

Writing the forces breakdown file (forces_breakdown.dat).
+-------------------------------------------------------------------------------------------------------+
|  Inner_Iter|   Time_Iter|    rms[Rho]|   rms[RhoU]|   rms[RhoV]|   rms[RhoE]|          CL|          CD|
+-------------------------------------------------------------------------------------------------------+
|         231|           0|   -2.053740|    0.494575|    0.430633|    3.382743|    1.887399|    0.188024|
|         232|           0|   -2.061901|    0.473346|    0.404104|    3.379750|    1.896750|    0.187615|
|         233|           0|   -2.070802|    0.454041|    0.379160|    3.375601|    1.904850|    0.186927|
|         234|           0|   -2.080529|    0.437865|    0.357324|    3.370016|    1.911620|    0.185970|
|         235|           0|   -2.090953|    0.425943|    0.340176|    3.363068|    1.917008|    0.184759|
|         236|           0|   -2.101580|    0.419078|    0.328926|    3.355110|    1.920967|    0.183306|
|         237|           0|   -2.112383|    0.417631|    0.324275|    3.346032|    1.923486|    0.181635|
|         238|           0|   -2.123063|    0.421300|    0.326090|    3.335984|    1.924559|    0.179766|
|         239|           0|   -2.133243|    0.429398|    0.333512|    3.325302|    1.924204|    0.177724|
|         240|           0|   -2.143260|    0.440797|    0.345117|    3.313576|    1.922451|    0.175534|
+-----------------------------------------------------------------------+
|        File Writing Summary       |              Filename             |
+-----------------------------------------------------------------------+
|SU2 restart                        |solution_flow.dat                  |
|Paraview                           |flow.vtu                           |
|Paraview surface                   |surface_flow.vtu                   |
+-----------------------------------------------------------------------+

Writing the forces breakdown file (forces_breakdown.dat).
+-------------------------------------------------------------------------------------------------------+
|  Inner_Iter|   Time_Iter|    rms[Rho]|   rms[RhoU]|   rms[RhoV]|   rms[RhoE]|          CL|          CD|
+-------------------------------------------------------------------------------------------------------+
|         241|           0|   -2.152796|    0.454013|    0.359295|    3.301063|    1.919357|    0.173225|
|         242|           0|   -2.161687|    0.467750|    0.374633|    3.287971|    1.914979|    0.170825|
|         243|           0|   -2.169655|    0.481143|    0.389938|    3.274686|    1.909402|    0.168365|
|         244|           0|   -2.177036|    0.493384|    0.404351|    3.260948|    1.902713|    0.165873|
|         245|           0|   -2.183082|    0.504274|    0.417279|    3.247861|    1.895020|    0.163381|
|         246|           0|   -2.187780|    0.513374|    0.428259|    3.235771|    1.886434|    0.160917|
|         247|           0|   -2.191214|    0.520332|    0.437022|    3.225004|    1.877083|    0.158512|
|         248|           0|   -2.193735|    0.524956|    0.443358|    3.215607|    1.867097|    0.156193|
|         249|           0|   -2.195386|    0.527223|    0.447076|    3.207985|    1.856613|    0.153989|
|         250|           0|   -2.196559|    0.527207|    0.448140|    3.202046|    1.845768|    0.151924|
+-----------------------------------------------------------------------+
|        File Writing Summary       |              Filename             |
+-----------------------------------------------------------------------+
|SU2 restart                        |solution_flow.dat                  |
|Paraview                           |flow.vtu                           |
|Paraview surface                   |surface_flow.vtu                   |
+-----------------------------------------------------------------------+

Writing the forces breakdown file (forces_breakdown.dat).
+-------------------------------------------------------------------------------------------------------+
|  Inner_Iter|   Time_Iter|    rms[Rho]|   rms[RhoU]|   rms[RhoV]|   rms[RhoE]|          CL|          CD|
+-------------------------------------------------------------------------------------------------------+
|         251|           0|   -2.197977|    0.524812|    0.446477|    3.197277|    1.834709|    0.150023|
|         252|           0|   -2.199269|    0.519915|    0.442151|    3.194196|    1.823572|    0.148305|
|         253|           0|   -2.200226|    0.512478|    0.435114|    3.193008|    1.812498|    0.146790|
|         254|           0|   -2.201263|    0.502491|    0.425361|    3.193163|    1.801622|    0.145493|
|         255|           0|   -2.202695|    0.489948|    0.412904|    3.194135|    1.791077|    0.144429|
|         256|           0|   -2.204621|    0.474952|    0.397783|    3.195698|    1.780987|    0.143606|
|         257|           0|   -2.207126|    0.457517|    0.380048|    3.197566|    1.771471|    0.143034|
|         258|           0|   -2.210219|    0.437759|    0.359870|    3.199515|    1.762638|    0.142716|
|         259|           0|   -2.214117|    0.415899|    0.337295|    3.201088|    1.754591|    0.142654|
|         260|           0|   -2.218939|    0.392183|    0.312602|    3.201942|    1.747416|    0.142846|
+-----------------------------------------------------------------------+
|        File Writing Summary       |              Filename             |
+-----------------------------------------------------------------------+
|SU2 restart                        |solution_flow.dat                  |
|Paraview                           |flow.vtu                           |
|Paraview surface                   |surface_flow.vtu                   |
+-----------------------------------------------------------------------+

Writing the forces breakdown file (forces_breakdown.dat).
+-------------------------------------------------------------------------------------------------------+
|  Inner_Iter|   Time_Iter|    rms[Rho]|   rms[RhoU]|   rms[RhoV]|   rms[RhoE]|          CL|          CD|
+-------------------------------------------------------------------------------------------------------+
|         261|           0|   -2.224675|    0.367004|    0.286279|    3.201943|    1.741190|    0.143288|
|         262|           0|   -2.231322|    0.340886|    0.258887|    3.200948|    1.735979|    0.143973|
|         263|           0|   -2.238743|    0.314528|    0.231410|    3.198936|    1.731835|    0.144892|
|         264|           0|   -2.246924|    0.288974|    0.205075|    3.195788|    1.728795|    0.146031|
|         265|           0|   -2.255743|    0.265448|    0.181504|    3.191479|    1.726884|    0.147376|
|         266|           0|   -2.265165|    0.245282|    0.162349|    3.185923|    1.726112|    0.148909|
|         267|           0|   -2.274979|    0.229656|    0.149067|    3.179197|    1.726480|    0.150612|
|         268|           0|   -2.285501|    0.218811|    0.142573|    3.170787|    1.727969|    0.152463|
|         269|           0|   -2.295868|    0.213424|    0.142905|    3.161464|    1.730556|    0.154441|
|         270|           0|   -2.305705|    0.213533|    0.149208|    3.151531|    1.734199|    0.156523|
+-----------------------------------------------------------------------+
|        File Writing Summary       |              Filename             |
+-----------------------------------------------------------------------+
|SU2 restart                        |solution_flow.dat                  |
|Paraview                           |flow.vtu                           |
|Paraview surface                   |surface_flow.vtu                   |
+-----------------------------------------------------------------------+

Writing the forces breakdown file (forces_breakdown.dat).
+-------------------------------------------------------------------------------------------------------+
|  Inner_Iter|   Time_Iter|    rms[Rho]|   rms[RhoU]|   rms[RhoV]|   rms[RhoE]|          CL|          CD|
+-------------------------------------------------------------------------------------------------------+
|         271|           0|   -2.315097|    0.218259|    0.160016|    3.140830|    1.738848|    0.158684|
|         272|           0|   -2.323570|    0.226806|    0.173890|    3.129882|    1.744440|    0.160899|
|         273|           0|   -2.331006|    0.237790|    0.189299|    3.118812|    1.750905|    0.163145|
|         274|           0|   -2.337291|    0.250120|    0.204994|    3.107906|    1.758159|    0.165393|
|         275|           0|   -2.342346|    0.262681|    0.219987|    3.097510|    1.766115|    0.167621|
|         276|           0|   -2.346315|    0.274461|    0.233687|    3.087639|    1.774673|    0.169801|
|         277|           0|   -2.349428|    0.284646|    0.245498|    3.078353|    1.783734|    0.171912|
|         278|           0|   -2.351692|    0.293048|    0.255098|    3.070015|    1.793191|    0.173928|
|         279|           0|   -2.353155|    0.299548|    0.262438|    3.062898|    1.802937|    0.175830|
|         280|           0|   -2.354017|    0.303994|    0.267353|    3.057120|    1.812861|    0.177596|
+-----------------------------------------------------------------------+
|        File Writing Summary       |              Filename             |
+-----------------------------------------------------------------------+
|SU2 restart                        |solution_flow.dat                  |
|Paraview                           |flow.vtu                           |
|Paraview surface                   |surface_flow.vtu                   |
+-----------------------------------------------------------------------+

Writing the forces breakdown file (forces_breakdown.dat).
+-------------------------------------------------------------------------------------------------------+
|  Inner_Iter|   Time_Iter|    rms[Rho]|   rms[RhoU]|   rms[RhoV]|   rms[RhoE]|          CL|          CD|
+-------------------------------------------------------------------------------------------------------+
|         281|           0|   -2.354576|    0.306291|    0.269850|    3.052592|    1.822851|    0.179208|
|         282|           0|   -2.355050|    0.306264|    0.269917|    3.049215|    1.832795|    0.180648|
|         283|           0|   -2.355573|    0.303994|    0.267561|    3.046969|    1.842586|    0.181902|
|         284|           0|   -2.356428|    0.299544|    0.262803|    3.045549|    1.852118|    0.182956|
|         285|           0|   -2.357706|    0.292811|    0.255736|    3.044806|    1.861291|    0.183801|
|         286|           0|   -2.359669|    0.283933|    0.246426|    3.044339|    1.870012|    0.184429|
|         287|           0|   -2.362388|    0.272983|    0.234912|    3.043979|    1.878192|    0.184835|
|         288|           0|   -2.366002|    0.260099|    0.221376|    3.043488|    1.885750|    0.185015|
|         289|           0|   -2.370503|    0.245532|    0.205938|    3.042791|    1.892615|    0.184970|
|         290|           0|   -2.375979|    0.229635|    0.188928|    3.041576|    1.898721|    0.184702|
+-----------------------------------------------------------------------+
|        File Writing Summary       |              Filename             |
+-----------------------------------------------------------------------+
|SU2 restart                        |solution_flow.dat                  |
|Paraview                           |flow.vtu                           |
|Paraview surface                   |surface_flow.vtu                   |
+-----------------------------------------------------------------------+

Writing the forces breakdown file (forces_breakdown.dat).
+-------------------------------------------------------------------------------------------------------+
|  Inner_Iter|   Time_Iter|    rms[Rho]|   rms[RhoU]|   rms[RhoV]|   rms[RhoE]|          CL|          CD|
+-------------------------------------------------------------------------------------------------------+
|         291|           0|   -2.382399|    0.212798|    0.170706|    3.039741|    1.904013|    0.184215|
|         292|           0|   -2.389797|    0.195430|    0.151642|    3.037109|    1.908451|    0.183517|
|         293|           0|   -2.398127|    0.178104|    0.132330|    3.033593|    1.912004|    0.182618|
|         294|           0|   -2.407271|    0.161494|    0.113483|    3.029184|    1.914650|    0.181530|
|         295|           0|   -2.417277|    0.146430|    0.095921|    3.023696|    1.916383|    0.180267|
|         296|           0|   -2.428044|    0.133537|    0.080471|    3.017107|    1.917201|    0.178845|
|         297|           0|   -2.439288|    0.123528|    0.067880|    3.009572|    1.917118|    0.177281|
|         298|           0|   -2.450796|    0.116765|    0.058772|    3.001165|    1.916152|    0.175595|
|         299|           0|   -2.462491|    0.113419|    0.053451|    2.991803|    1.914337|    0.173806|
|         300|           0|   -2.474368|    0.113191|    0.051938|    2.981255|    1.911714|    0.171936|
+-----------------------------------------------------------------------+
|        File Writing Summary       |              Filename             |
+-----------------------------------------------------------------------+
|SU2 restart                        |solution_flow.dat                  |
|Paraview                           |flow.vtu                           |
|Paraview surface                   |surface_flow.vtu                   |
+-----------------------------------------------------------------------+

Writing the forces breakdown file (forces_breakdown.dat).
+-------------------------------------------------------------------------------------------------------+
|  Inner_Iter|   Time_Iter|    rms[Rho]|   rms[RhoU]|   rms[RhoV]|   rms[RhoE]|          CL|          CD|
+-------------------------------------------------------------------------------------------------------+
|         301|           0|   -2.486044|    0.115980|    0.053851|    2.969942|    1.908333|    0.170005|
|         302|           0|   -2.497256|    0.121240|    0.058549|    2.958023|    1.904253|    0.168038|
|         303|           0|   -2.507808|    0.128258|    0.065253|    2.945646|    1.899542|    0.166056|
|         304|           0|   -2.517586|    0.136380|    0.073204|    2.932932|    1.894270|    0.164081|
|         305|           0|   -2.526236|    0.144948|    0.081647|    2.920329|    1.888514|    0.162137|
|         306|           0|   -2.533759|    0.153329|    0.089939|    2.907909|    1.882356|    0.160244|
|         307|           0|   -2.540310|    0.161038|    0.097529|    2.895701|    1.875881|    0.158425|
|         308|           0|   -2.545853|    0.167642|    0.104042|    2.883960|    1.869178|    0.156698|
|         309|           0|   -2.550351|    0.172926|    0.109217|    2.873112|    1.862331|    0.155081|
|         310|           0|   -2.553883|    0.176662|    0.112786|    2.863399|    1.855433|    0.153593|
+-----------------------------------------------------------------------+
|        File Writing Summary       |              Filename             |
+-----------------------------------------------------------------------+
|SU2 restart                        |solution_flow.dat                  |
|Paraview                           |flow.vtu                           |
|Paraview surface                   |surface_flow.vtu                   |
+-----------------------------------------------------------------------+

Writing the forces breakdown file (forces_breakdown.dat).
+-------------------------------------------------------------------------------------------------------+
|  Inner_Iter|   Time_Iter|    rms[Rho]|   rms[RhoU]|   rms[RhoV]|   rms[RhoE]|          CL|          CD|
+-------------------------------------------------------------------------------------------------------+
|         311|           0|   -2.556634|    0.178645|    0.114581|    2.854933|    1.848570|    0.152247|
|         312|           0|   -2.558843|    0.178787|    0.114396|    2.847759|    1.841826|    0.151059|
|         313|           0|   -2.560750|    0.176985|    0.112176|    2.841828|    1.835281|    0.150038|
|         314|           0|   -2.562581|    0.173262|    0.107894|    2.837065|    1.829016|    0.149195|
|         315|           0|   -2.564526|    0.167527|    0.101550|    2.833360|    1.823102|    0.148537|
|         316|           0|   -2.566764|    0.159750|    0.093124|    2.830549|    1.817609|    0.148070|
|         317|           0|   -2.569427|    0.149970|    0.082602|    2.828468|    1.812596|    0.147795|
|         318|           0|   -2.572622|    0.138189|    0.070057|    2.826933|    1.808119|    0.147715|
|         319|           0|   -2.576413|    0.124426|    0.055552|    2.825734|    1.804222|    0.147826|
|         320|           0|   -2.580842|    0.108796|    0.039196|    2.824705|    1.800947|    0.148126|
+-----------------------------------------------------------------------+
|        File Writing Summary       |              Filename             |
+-----------------------------------------------------------------------+
|SU2 restart                        |solution_flow.dat                  |
|Paraview                           |flow.vtu                           |
|Paraview surface                   |surface_flow.vtu                   |
+-----------------------------------------------------------------------+

Writing the forces breakdown file (forces_breakdown.dat).
+-------------------------------------------------------------------------------------------------------+
|  Inner_Iter|   Time_Iter|    rms[Rho]|   rms[RhoU]|   rms[RhoV]|   rms[RhoE]|          CL|          CD|
+-------------------------------------------------------------------------------------------------------+
|         321|           0|   -2.585938|    0.091353|    0.021089|    2.823654|    1.798323|    0.148608|
|         322|           0|   -2.591754|    0.072336|    0.001466|    2.822368|    1.796375|    0.149264|
|         323|           0|   -2.598263|    0.051968|   -0.019288|    2.820731|    1.795116|    0.150086|
|         324|           0|   -2.605468|    0.030503|   -0.040724|    2.818543|    1.794552|    0.151061|
|         325|           0|   -2.613445|    0.008377|   -0.062255|    2.815582|    1.794684|    0.152177|
|         326|           0|   -2.622165|   -0.013939|   -0.083190|    2.811736|    1.795501|    0.153421|
|         327|           0|   -2.631522|   -0.035867|   -0.102717|    2.806981|    1.796984|    0.154775|
|         328|           0|   -2.641332|   -0.056773|   -0.119962|    2.801370|    1.799112|    0.156226|
|         329|           0|   -2.651459|   -0.075938|   -0.134099|    2.794876|    1.801850|    0.157755|
|         330|           0|   -2.661666|   -0.092635|   -0.144450|    2.787608|    1.805164|    0.159345|
+-----------------------------------------------------------------------+
|        File Writing Summary       |              Filename             |
+-----------------------------------------------------------------------+
|SU2 restart                        |solution_flow.dat                  |
|Paraview                           |flow.vtu                           |
|Paraview surface                   |surface_flow.vtu                   |
+-----------------------------------------------------------------------+

Writing the forces breakdown file (forces_breakdown.dat).
+-------------------------------------------------------------------------------------------------------+
|  Inner_Iter|   Time_Iter|    rms[Rho]|   rms[RhoU]|   rms[RhoV]|   rms[RhoE]|          CL|          CD|
+-------------------------------------------------------------------------------------------------------+
|         331|           0|   -2.671780|   -0.106238|   -0.150629|    2.779636|    1.809007|    0.160979|
|         332|           0|   -2.681603|   -0.116363|   -0.152653|    2.771078|    1.813331|    0.162636|
|         333|           0|   -2.690894|   -0.122877|   -0.150853|    2.762070|    1.818086|    0.164301|
|         334|           0|   -2.699451|   -0.125961|   -0.145901|    2.752796|    1.823212|    0.165954|
|         335|           0|   -2.707242|   -0.125812|   -0.138599|    2.743318|    1.828651|    0.167578|
|         336|           0|   -2.714215|   -0.123003|   -0.129816|    2.733732|    1.834341|    0.169156|
|         337|           0|   -2.720160|   -0.118235|   -0.120334|    2.724364|    1.840217|    0.170671|
|         338|           0|   -2.725141|   -0.112347|   -0.110877|    2.715308|    1.846218|    0.172110|
|         339|           0|   -2.729411|   -0.106114|   -0.101993|    2.706458|    1.852275|    0.173456|
|         340|           0|   -2.732941|   -0.100107|   -0.094055|    2.698078|    1.858328|    0.174699|
+-----------------------------------------------------------------------+
|        File Writing Summary       |              Filename             |
+-----------------------------------------------------------------------+
|SU2 restart                        |solution_flow.dat                  |
|Paraview                           |flow.vtu                           |
|Paraview surface                   |surface_flow.vtu                   |
+-----------------------------------------------------------------------+

Writing the forces breakdown file (forces_breakdown.dat).
+-------------------------------------------------------------------------------------------------------+
|  Inner_Iter|   Time_Iter|    rms[Rho]|   rms[RhoU]|   rms[RhoV]|   rms[RhoE]|          CL|          CD|
+-------------------------------------------------------------------------------------------------------+
|         341|           0|   -2.735838|   -0.094736|   -0.087339|    2.690296|    1.864313|    0.175826|
|         342|           0|   -2.738277|   -0.090316|   -0.082039|    2.683165|    1.870169|    0.176826|
|         343|           0|   -2.740450|   -0.087079|   -0.078270|    2.676711|    1.875839|    0.177691|
|         344|           0|   -2.742457|   -0.085214|   -0.076082|    2.671036|    1.881269|    0.178414|
|         345|           0|   -2.744516|   -0.084815|   -0.075511|    2.666044|    1.886406|    0.178990|
|         346|           0|   -2.746895|   -0.085880|   -0.076506|    2.661526|    1.891205|    0.179416|
|         347|           0|   -2.749770|   -0.088414|   -0.079058|    2.657352|    1.895625|    0.179688|
|         348|           0|   -2.753231|   -0.092422|   -0.083088|    2.653449|    1.899629|    0.179807|
|         349|           0|   -2.757330|   -0.097867|   -0.088478|    2.649744|    1.903185|    0.179775|
|         350|           0|   -2.762190|   -0.104641|   -0.095093|    2.646065|    1.906268|    0.179593|
+-----------------------------------------------------------------------+
[...]
|         905|           0|   -4.447387|   -1.424218|   -1.752218|    1.012852|    1.941789|    0.168936|
|         906|           0|   -4.412268|   -1.564842|   -1.787473|    1.009840|    1.941799|    0.168938|
|         907|           0|   -4.355122|   -1.745931|   -1.798802|    1.081797|    1.941809|    0.168940|
|         908|           0|   -4.290408|   -1.787706|   -1.782740|    1.181510|    1.941820|    0.168942|
|         909|           0|   -4.220691|   -1.552487|   -1.743975|    1.286310|    1.941832|    0.168945|
|         910|           0|   -4.142356|   -1.314740|   -1.684884|    1.394856|    1.941844|    0.168948|
+-----------------------------------------------------------------------+
|        File Writing Summary       |              Filename             |
+-----------------------------------------------------------------------+
|SU2 restart                        |solution_flow.dat                  |
|Paraview                           |flow.vtu                           |
|Paraview surface                   |surface_flow.vtu                   |
+-----------------------------------------------------------------------+

Writing the forces breakdown file (forces_breakdown.dat).
+-------------------------------------------------------------------------------------------------------+
|  Inner_Iter|   Time_Iter|    rms[Rho]|   rms[RhoU]|   rms[RhoV]|   rms[RhoE]|          CL|          CD|
+-------------------------------------------------------------------------------------------------------+
|         911|           0|   -4.058377|   -1.120491|   -1.607445|    1.502964|    1.941858|    0.168952|
|         912|           0|   -4.237076|   -1.213299|   -1.650978|    1.337981|    1.941872|    0.168955|
|         913|           0|   -4.390877|   -1.318914|   -1.700919|    1.170245|    1.941886|    0.168958|
|         914|           0|   -4.455285|   -1.420920|   -1.741929|    1.049826|    1.941901|    0.168962|
|         915|           0|   -4.457996|   -1.517062|   -1.772907|    0.995081|    1.941917|    0.168965|
|         916|           0|   -4.454077|   -1.605172|   -1.795599|    0.975849|    1.941933|    0.168969|
|         917|           0|   -4.466565|   -1.681667|   -1.811601|    0.956665|    1.941950|    0.168973|
|         918|           0|   -4.494985|   -1.742265|   -1.822436|    0.928406|    1.941967|    0.168976|
|         919|           0|   -4.537620|   -1.785317|   -1.829990|    0.888878|    1.941984|    0.168979|
|         920|           0|   -4.590545|   -1.813595|   -1.836003|    0.841075|    1.942002|    0.168983|
+-----------------------------------------------------------------------+
|        File Writing Summary       |              Filename             |
+-----------------------------------------------------------------------+
|SU2 restart                        |solution_flow.dat                  |
|Paraview                           |flow.vtu                           |
|Paraview surface                   |surface_flow.vtu                   |
+-----------------------------------------------------------------------+

Writing the forces breakdown file (forces_breakdown.dat).
+-------------------------------------------------------------------------------------------------------+
|  Inner_Iter|   Time_Iter|    rms[Rho]|   rms[RhoU]|   rms[RhoV]|   rms[RhoE]|          CL|          CD|
+-------------------------------------------------------------------------------------------------------+
|         921|           0|   -4.498714|   -1.947811|   -1.840328|    0.970991|    1.942020|    0.168986|
|         922|           0|   -4.392737|   -1.667201|   -1.821389|    1.121915|    1.942038|    0.168989|
|         923|           0|   -4.317642|   -1.438787|   -1.778790|    1.228595|    1.942056|    0.168992|
|         924|           0|   -4.283815|   -1.308191|   -1.731524|    1.284439|    1.942073|    0.168994|
|         925|           0|   -4.292012|   -1.245323|   -1.698697|    1.291696|    1.942091|    0.168997|
|         926|           0|   -4.334083|   -1.232781|   -1.689479|    1.256470|    1.942107|    0.168999|
|         927|           0|   -4.392610|   -1.259950|   -1.705603|    1.187236|    1.942125|    0.169001|
|         928|           0|   -4.440443|   -1.321495|   -1.743931|    1.097532|    1.942141|    0.169002|
|         929|           0|   -4.451615|   -1.418387|   -1.794930|    1.017950|    1.942158|    0.169004|
|         930|           0|   -4.420167|   -1.559208|   -1.839525|    1.005188|    1.942174|    0.169005|
+-----------------------------------------------------------------------+
|        File Writing Summary       |              Filename             |
+-----------------------------------------------------------------------+
|SU2 restart                        |solution_flow.dat                  |
|Paraview                           |flow.vtu                           |
|Paraview surface                   |surface_flow.vtu                   |
+-----------------------------------------------------------------------+

Writing the forces breakdown file (forces_breakdown.dat).
+-------------------------------------------------------------------------------------------------------+
|  Inner_Iter|   Time_Iter|    rms[Rho]|   rms[RhoU]|   rms[RhoV]|   rms[RhoE]|          CL|          CD|
+-------------------------------------------------------------------------------------------------------+
|         931|           0|   -4.364269|   -1.752734|   -1.855813|    1.071125|    1.942189|    0.169006|
|         932|           0|   -4.299750|   -1.836154|   -1.836972|    1.169533|    1.942203|    0.169006|
|         933|           0|   -4.230317|   -1.590989|   -1.790726|    1.274149|    1.942217|    0.169006|
|         934|           0|   -4.152379|   -1.340925|   -1.723150|    1.382671|    1.942231|    0.169007|
|         935|           0|   -4.068121|   -1.140044|   -1.637673|    1.491515|    1.942244|    0.169006|
|         936|           0|   -4.214526|   -1.200430|   -1.669309|    1.360731|    1.942255|    0.169006|
|         937|           0|   -4.378993|   -1.307170|   -1.725900|    1.188678|    1.942267|    0.169005|
|         938|           0|   -4.455706|   -1.411186|   -1.774896|    1.059352|    1.942277|    0.169004|
|         939|           0|   -4.461664|   -1.510219|   -1.813281|    0.997105|    1.942288|    0.169003|
|         940|           0|   -4.455627|   -1.602161|   -1.842017|    0.976235|    1.942297|    0.169001|
+-----------------------------------------------------------------------+
|        File Writing Summary       |              Filename             |
+-----------------------------------------------------------------------+
|SU2 restart                        |solution_flow.dat                  |
|Paraview                           |flow.vtu                           |
|Paraview surface                   |surface_flow.vtu                   |
+-----------------------------------------------------------------------+

Writing the forces breakdown file (forces_breakdown.dat).
+-------------------------------------------------------------------------------------------------------+
|  Inner_Iter|   Time_Iter|    rms[Rho]|   rms[RhoU]|   rms[RhoV]|   rms[RhoE]|          CL|          CD|
+-------------------------------------------------------------------------------------------------------+
|         941|           0|   -4.464886|   -1.683485|   -1.862457|    0.958739|    1.942305|    0.169000|
|         942|           0|   -4.491162|   -1.749328|   -1.876005|    0.931868|    1.942313|    0.168998|
|         943|           0|   -4.532032|   -1.796888|   -1.884801|    0.893655|    1.942321|    0.168996|
|         944|           0|   -4.583925|   -1.828122|   -1.891123|    0.846406|    1.942327|    0.168994|
|         945|           0|   -4.511553|   -1.991206|   -1.895689|    0.952449|    1.942334|    0.168992|
|         946|           0|   -4.403777|   -1.711434|   -1.873187|    1.106382|    1.942339|    0.168990|
|         947|           0|   -4.324868|   -1.463191|   -1.821785|    1.218320|    1.942344|    0.168988|
|         948|           0|   -4.286424|   -1.321818|   -1.764840|    1.279716|    1.942349|    0.168986|
|         949|           0|   -4.290343|   -1.251781|   -1.724436|    1.292101|    1.942354|    0.168984|
|         950|           0|   -4.329658|   -1.233943|   -1.710364|    1.261133|    1.942358|    0.168982|
+-----------------------------------------------------------------------+
|        File Writing Summary       |              Filename             |
+-----------------------------------------------------------------------+
|SU2 restart                        |solution_flow.dat                  |
|Paraview                           |flow.vtu                           |
|Paraview surface                   |surface_flow.vtu                   |
+-----------------------------------------------------------------------+

Writing the forces breakdown file (forces_breakdown.dat).
+-------------------------------------------------------------------------------------------------------+
|  Inner_Iter|   Time_Iter|    rms[Rho]|   rms[RhoU]|   rms[RhoV]|   rms[RhoE]|          CL|          CD|
+-------------------------------------------------------------------------------------------------------+
|         951|           0|   -4.388185|   -1.256934|   -1.724471|    1.194869|    1.942361|    0.168980|
|         952|           0|   -4.439888|   -1.314788|   -1.764250|    1.105490|    1.942365|    0.168978|
|         953|           0|   -4.456618|   -1.407878|   -1.821351|    1.020907|    1.942369|    0.168976|
|         954|           0|   -4.428892|   -1.544368|   -1.876303|    0.997889|    1.942371|    0.168974|
|         955|           0|   -4.374225|   -1.737307|   -1.901448|    1.057580|    1.942375|    0.168972|
|         956|           0|   -4.309614|   -1.860718|   -1.883685|    1.155394|    1.942377|    0.168971|
|         957|           0|   -4.240260|   -1.627125|   -1.832411|    1.260467|    1.942381|    0.168970|
|         958|           0|   -4.162839|   -1.368450|   -1.758136|    1.369149|    1.942384|    0.168969|
|         959|           0|   -4.078761|   -1.161783|   -1.666140|    1.478502|    1.942388|    0.168968|
|         960|           0|   -4.190948|   -1.187301|   -1.681769|    1.383278|    1.942391|    0.168967|
+-----------------------------------------------------------------------+
|        File Writing Summary       |              Filename             |
+-----------------------------------------------------------------------+
|SU2 restart                        |solution_flow.dat                  |
|Paraview                           |flow.vtu                           |
|Paraview surface                   |surface_flow.vtu                   |
+-----------------------------------------------------------------------+

Writing the forces breakdown file (forces_breakdown.dat).
+-------------------------------------------------------------------------------------------------------+
|  Inner_Iter|   Time_Iter|    rms[Rho]|   rms[RhoU]|   rms[RhoV]|   rms[RhoE]|          CL|          CD|
+-------------------------------------------------------------------------------------------------------+
|         961|           0|   -4.364657|   -1.294444|   -1.743762|    1.207647|    1.942394|    0.168966|
|         962|           0|   -4.455518|   -1.399454|   -1.799989|    1.069183|    1.942399|    0.168966|
|         963|           0|   -4.467045|   -1.500084|   -1.845374|    0.997881|    1.942403|    0.168966|
|         964|           0|   -4.460139|   -1.594424|   -1.880048|    0.973772|    1.942407|    0.168966|
|         965|           0|   -4.466888|   -1.679328|   -1.905084|    0.957006|    1.942411|    0.168967|
|         966|           0|   -4.491448|   -1.749822|   -1.921667|    0.931084|    1.942416|    0.168967|
|         967|           0|   -4.531416|   -1.802215|   -1.932154|    0.893267|    1.942422|    0.168968|
|         968|           0|   -4.583400|   -1.837366|   -1.939322|    0.845469|    1.942428|    0.168969|
|         969|           0|   -4.529045|   -2.015045|   -1.945127|    0.929518|    1.942434|    0.168970|
|         970|           0|   -4.418326|   -1.755742|   -1.920770|    1.087810|    1.942440|    0.168971|
+-----------------------------------------------------------------------+
|        File Writing Summary       |              Filename             |
+-----------------------------------------------------------------------+
|SU2 restart                        |solution_flow.dat                  |
|Paraview                           |flow.vtu                           |
|Paraview surface                   |surface_flow.vtu                   |
+-----------------------------------------------------------------------+

Writing the forces breakdown file (forces_breakdown.dat).
+-------------------------------------------------------------------------------------------------------+
|  Inner_Iter|   Time_Iter|    rms[Rho]|   rms[RhoU]|   rms[RhoV]|   rms[RhoE]|          CL|          CD|
+-------------------------------------------------------------------------------------------------------+
|         971|           0|   -4.334519|   -1.487733|   -1.861532|    1.206088|    1.942447|    0.168972|
|         972|           0|   -4.290975|   -1.335515|   -1.795386|    1.273467|    1.942454|    0.168974|
|         973|           0|   -4.290068|   -1.258260|   -1.747587|    1.291352|    1.942462|    0.168976|
|         974|           0|   -4.325690|   -1.235067|   -1.728571|    1.265129|    1.942470|    0.168977|
|         975|           0|   -4.383041|   -1.253814|   -1.740239|    1.202416|    1.942479|    0.168979|
|         976|           0|   -4.436790|   -1.307929|   -1.780633|    1.114735|    1.942488|    0.168981|
|         977|           0|   -4.457984|   -1.397179|   -1.842805|    1.027270|    1.942497|    0.168983|
|         978|           0|   -4.434625|   -1.529228|   -1.907923|    0.994357|    1.942506|    0.168985|
|         979|           0|   -4.381704|   -1.720136|   -1.943048|    1.046673|    1.942516|    0.168987|
|         980|           0|   -4.317778|   -1.882352|   -1.926957|    1.142517|    1.942526|    0.168989|
+-----------------------------------------------------------------------+
|        File Writing Summary       |              Filename             |
+-----------------------------------------------------------------------+
|SU2 restart                        |solution_flow.dat                  |
|Paraview                           |flow.vtu                           |
|Paraview surface                   |surface_flow.vtu                   |
+-----------------------------------------------------------------------+

Writing the forces breakdown file (forces_breakdown.dat).
+-------------------------------------------------------------------------------------------------------+
|  Inner_Iter|   Time_Iter|    rms[Rho]|   rms[RhoU]|   rms[RhoV]|   rms[RhoE]|          CL|          CD|
+-------------------------------------------------------------------------------------------------------+
|         981|           0|   -4.249077|   -1.667259|   -1.870429|    1.247348|    1.942536|    0.168991|
|         982|           0|   -4.172768|   -1.398291|   -1.789608|    1.355650|    1.942546|    0.168993|
|         983|           0|   -4.089374|   -1.185100|   -1.691981|    1.465140|    1.942556|    0.168994|
|         984|           0|   -4.166301|   -1.174307|   -1.688216|    1.406147|    1.942567|    0.168996|
|         985|           0|   -4.346888|   -1.281921|   -1.754442|    1.228068|    1.942578|    0.168998|
|         986|           0|   -4.450833|   -1.388048|   -1.817630|    1.081989|    1.942588|    0.168999|
|         987|           0|   -4.469110|   -1.490456|   -1.870875|    1.001605|    1.942598|    0.169001|
|         988|           0|   -4.462274|   -1.587387|   -1.913286|    0.973315|    1.942608|    0.169002|
|         989|           0|   -4.466387|   -1.675988|   -1.945233|    0.957383|    1.942618|    0.169004|
|         990|           0|   -4.488566|   -1.751216|   -1.967212|    0.933253|    1.942628|    0.169005|
+-----------------------------------------------------------------------+
|        File Writing Summary       |              Filename             |
+-----------------------------------------------------------------------+
|SU2 restart                        |solution_flow.dat                  |
|Paraview                           |flow.vtu                           |
|Paraview surface                   |surface_flow.vtu                   |
+-----------------------------------------------------------------------+

Writing the forces breakdown file (forces_breakdown.dat).
+-------------------------------------------------------------------------------------------------------+
|  Inner_Iter|   Time_Iter|    rms[Rho]|   rms[RhoU]|   rms[RhoV]|   rms[RhoE]|          CL|          CD|
+-------------------------------------------------------------------------------------------------------+
|         991|           0|   -4.527010|   -1.808548|   -1.981347|    0.896668|    1.942637|    0.169006|
|         992|           0|   -4.577787|   -1.847712|   -1.990722|    0.849976|    1.942646|    0.169006|
|         993|           0|   -4.543260|   -2.032684|   -1.998802|    0.909588|    1.942656|    0.169007|
|         994|           0|   -4.430651|   -1.808911|   -1.972855|    1.070691|    1.942665|    0.169008|
|         995|           0|   -4.342612|   -1.515507|   -1.903864|    1.194773|    1.942673|    0.169008|
|         996|           0|   -4.293996|   -1.350693|   -1.826449|    1.268184|    1.942683|    0.169008|
|         997|           0|   -4.288134|   -1.265499|   -1.769829|    1.291729|    1.942690|    0.169008|
|         998|           0|   -4.320094|   -1.236581|   -1.744735|    1.270344|    1.942699|    0.169008|
|         999|           0|   -4.376311|   -1.250885|   -1.752726|    1.211363|    1.942706|    0.169008|

----------------------------- Solver Exit -------------------------------

Maximum number of iterations reached (ITER = 1000) before convergence.
+-----------------------------------------------------------------------+
|      Convergence Field     |     Value    |   Criterion  |  Converged |
+-----------------------------------------------------------------------+
|                  Cauchy[CD]|   9.38937e-06|       < 1e-10|          No|
+-----------------------------------------------------------------------+
-------------------------------------------------------------------------
+-----------------------------------------------------------------------+
|        File Writing Summary       |              Filename             |
+-----------------------------------------------------------------------+
|SU2 restart                        |solution_flow.dat                  |
|Paraview                           |flow.vtu                           |
|Paraview surface                   |surface_flow.vtu                   |
+-----------------------------------------------------------------------+

Writing the forces breakdown file (forces_breakdown.dat).

------------------------- Solver Postprocessing -------------------------
Deleted CNumerics container.
Deleted CIntegration container.
Deleted CSolver container.
Deleted CIteration container.
Deleted CInterpolator container.
Deleted CInterface container.
Deleted CGeometry container.
Deleted CFreeFormDefBox class.
Deleted CSurfaceMovement class.
Deleted CVolumetricMovement class.
Deleted CConfig container.
Deleted nInst container.
Deleted COutput class.
-------------------------------------------------------------------------

------------------------- Exit Success (SU2_CFD) ------------------------

