
-------------------------------------------------------------------------
|    ___ _   _ ___                                                      |
|   / __| | | |_  )   Release 7.0.3 "Blackbird"                         |
|   \__ \ |_| |/ /                                                      |
|   |___/\___//___|   Suite (Computational Fluid Dynamics Code)         |
|                                                                       |
-------------------------------------------------------------------------
| SU2 Project Website: https://su2code.github.io                        |
|                                                                       |
| The SU2 Project is maintained by the SU2 Foundation                   |
| (http://su2foundation.org)                                            |
-------------------------------------------------------------------------
| Copyright 2012-2020, SU2 Contributors                                 |
|                                                                       |
| SU2 is free software; you can redistribute it and/or                  |
| modify it under the terms of the GNU Lesser General Public            |
| License as published by the Free Software Foundation; either          |
| version 2.1 of the License, or (at your option) any later version.    |
|                                                                       |
| SU2 is distributed in the hope that it will be useful,                |
| but WITHOUT ANY WARRANTY; without even the implied warranty of        |
| MERCHANTABILITY or FITNESS FOR A PARTICULAR PURPOSE. See the GNU      |
| Lesser General Public License for more details.                       |
|                                                                       |
| You should have received a copy of the GNU Lesser General Public      |
| License along with SU2. If not, see <http://www.gnu.org/licenses/>.   |
-------------------------------------------------------------------------

Parsing config file for zone 0

----------------- Physical Case Definition ( Zone 0 ) -------------------
Compressible Euler equations.
Mach number: 0.35.
Angle of attack (AoA): 2 deg, and angle of sideslip (AoS): 0 deg.
No restart solution, use the values at infinity (freestream).
Dimensional simulation.
The reference area is 55.7983 m^2.
The semi-span will be computed using the max y(3D) value.
The reference length is 1.8008 m.
Surface(s) where the force coefficients are evaluated and 
their reference origin for moment computation: 
   - VTP (9.6115, 0, 2.5277).
   - Fuselage (9.6115, 0, 2.5277).
   - HTP (9.6115, 0, 2.5277).
   - Wing (9.6115, 0, 2.5277) m.
Surface(s) where the objective function is evaluated: airfoil.
Surface(s) plotted in the output file: VTP, Fuselage, HTP, Wing.
Surface(s) to be analyzed in detail: airfoil.
Surface(s) affected by the design variables: VTP, Fuselage, HTP, Wing.
Input mesh file name: deformed.su2

--------------- Space Numerical Integration ( Zone 0 ) ------------------
Roe (with entropy fix = 0) solver for the flow inviscid terms.
Roe with DDES's FD low-dissipation function.
Second order integration in space, with slope limiter.
Venkatakrishnan slope-limiting method, with constant: 0.05. 
The reference element size is: 1. 
Gradient for upwind reconstruction: Green-Gauss.
Gradient for viscous and source terms: Green-Gauss.

--------------- Time Numerical Integration  ( Zone 0 ) ------------------
Local time stepping (steady state simulation).
Euler implicit method for the flow equations.
FGMRES is used for solving the linear system.
Using a ILU(0) preconditioning.
Convergence criteria of the linear solver: 1e-06.
Max number of linear iterations: 5.
V Multigrid Cycle, with 3 multigrid levels.
Damping factor for the residual restriction: 0.75.
Damping factor for the correction prolongation: 0.75.
No CFL adaptation.
+-------------------------------------------+
|  MG Level| Presmooth|PostSmooth|CorrectSmo|
+-------------------------------------------+
|         0|         1|         0|         0|
|         1|         2|         0|         0|
|         2|         3|         0|         0|
|         3|         3|         0|         0|
+-------------------------------------------+
Courant-Friedrichs-Lewy number:        1

------------------ Convergence Criteria  ( Zone 0 ) ---------------------
Maximum number of solver subiterations: 1000.
Begin convergence monitoring at iteration 10.
Residual minimum value: 1e-8.
Cauchy series min. value: 1e-10.
Number of Cauchy elements: 100.
Begin windowed time average at iteration 15.

-------------------- Output Information ( Zone 0 ) ----------------------
Writing solution files every 10 iterations.
Writing the convergence history file every 1 inner iterations.
Writing the screen convergence history every 1 inner iterations.
The tabular file format is Tecplot (.dat).
Convergence history file name: history.
Forces breakdown file name: forces_breakdown.dat.
Surface file name: surface_flow.
Volume file name: flow.
Restart file name: solution_flow.dat.

------------- Config File Boundary Information ( Zone 0 ) ---------------
+-----------------------------------------------------------------------+
|                        Marker Type|                        Marker Name|
+-----------------------------------------------------------------------+
|                         Euler wall|                                VTP|
|                                   |                           Fuselage|
|                                   |                                HTP|
|                                   |                               Wing|
+-----------------------------------------------------------------------+
|                          Far-field|                           Farfield|
+-----------------------------------------------------------------------+
|                     Symmetry plane|                                  0|
+-----------------------------------------------------------------------+
|           Deformable mesh boundary|                            airfoil|
+-----------------------------------------------------------------------+

-------------------- Output Preprocessing ( Zone 0 ) --------------------
Screen output fields: INNER_ITER, TIME_ITER, RMS_DENSITY, RMS_MOMENTUM-X, RMS_MOMENTUM-Y, RMS_ENERGY, LIFT, DRAG
  Info: Ignoring the following history output groups:
  TIME_ITER
History output group(s): ITER, RMS_RES, AERO_COEFF
Warning: No (valid) fields chosen for convergence monitoring. Convergence monitoring inactive.
Warning: No (valid) fields chosen for time convergence monitoring. Time convergence monitoring inactive.
Volume output fields: COORDINATES, SOLUTION, PRIMITIVE

------------------- Geometry Preprocessing ( Zone 0 ) -------------------
Three dimensional problem.
134403 grid points before partitioning.
750945 volume elements before partitioning.
5 surface markers.
2298 boundary elements in index 0 (Marker = VTP).
6838 boundary elements in index 1 (Marker = Fuselage).
9046 boundary elements in index 2 (Marker = HTP).
42568 boundary elements in index 3 (Marker = Wing).
1280 boundary elements in index 4 (Marker = Farfield).
Executing the partitioning functions.
Building the graph adjacency structure.
Calling ParMETIS... graph partitioning complete (14371 edge cuts).
Distributing ParMETIS coloring.
Rebalancing vertices.
Rebalancing volume element connectivity.
Rebalancing markers and surface elements.
142496 vertices including ghost points. 
772621 interior elements including halo cells. 
772621 tetrahedra.
Establishing MPI communication patterns.
Setting point connectivity.
Renumbering points (Reverse Cuthill McKee Ordering).
Recomputing point connectivity.
Setting element connectivity.
Checking the numerical grid orientation.
Identifying edges and vertices.
Computing centers of gravity.
Setting the control volume structure.
Volume of the computational grid: 5.51664e+06.
Searching for the closest normal neighbors to the surfaces.
Storing a mapping from global to local point index.
Compute the surface curvature.
Max K: 877.266. Mean K: 40.286. Standard deviation K: 79.2817.
Checking for periodicity.
Computing mesh quality statistics for the dual control volumes.
+--------------------------------------------------------------+
|           Mesh Quality Metric|        Minimum|        Maximum|
+--------------------------------------------------------------+
|    Orthogonality Angle (deg.)|        34.6763|        84.6923|
|     CV Face Area Aspect Ratio|        1.23882|        323.696|
|           CV Sub-Volume Ratio|        1.03436|        2846.98|
+--------------------------------------------------------------+
Setting the multigrid structure.
+-------------------------------------------+
|  MG Level|       CVs|Aggl. Rate|       CFL|
+-------------------------------------------+
|         0|    142496|    1/1.00|         1|
|         1|     25276|    1/5.64|  0.842804|
|         2|      5944|    1/4.25|  0.780323|
Finding max control volume width.
Communicating number of neighbors.
Semi-span length = 16.1437 m.
Wetted area = 186.502 m^2.
Area projection in the x-plane = 12.0293 m^2, y-plane = 23.8164 m^2, z-plane = 75.0381 m^2.
Max. coordinate in the x-direction = 16.6495 m, y-direction = 16.1437 m, z-direction = 5.48219 m.
Min. coordinate in the x-direction = 2.4982 m, y-direction = -16.1439 m, z-direction = 2.24158 m.
Checking if Euler & Symmetry markers are straight/plane:
Boundary marker VTP is NOT a single plane.
Boundary marker Fuselage is NOT a single plane.
Boundary marker HTP is NOT a single plane.
Boundary marker Wing is NOT a single plane.
Boundary marker 0 is a single plane.

-------------------- Solver Preprocessing ( Zone 0 ) --------------------
Inviscid flow: Computing density based on free-stream
temperature and pressure using the ideal gas law.
Force coefficients computed using free-stream values.

-- Models:
+------------------------------------------------------------------------------+
|          Viscosity Model|        Conductivity Model|              Fluid Model|
+------------------------------------------------------------------------------+
|                        -|                         -|             STANDARD_AIR|
+------------------------------------------------------------------------------+
-- Fluid properties:
+------------------------------------------------------------------------------+
|                  Name|    Dim. value|    Ref. value|      Unit|Non-dim. value|
+------------------------------------------------------------------------------+
|          Gas Constant|       287.058|             1|  N.m/kg.K|       287.058|
|      Spec. Heat Ratio|             -|             -|         -|           1.4|
+------------------------------------------------------------------------------+
-- Initial and free-stream conditions:
+------------------------------------------------------------------------------+
|                  Name|    Dim. value|    Ref. value|      Unit|Non-dim. value|
+------------------------------------------------------------------------------+
|       Static Pressure|        101325|             1|        Pa|        101325|
|               Density|       1.22498|             1|    kg/m^3|       1.22498|
|           Temperature|        288.15|             1|         K|        288.15|
|          Total Energy|        213882|             1|   m^2/s^2|        213882|
|            Velocity-X|       119.031|             1|       m/s|       119.031|
|            Velocity-Y|             0|             1|       m/s|             0|
|            Velocity-Z|       4.15667|             1|       m/s|       4.15667|
|    Velocity Magnitude|       119.104|             1|       m/s|       119.104|
+------------------------------------------------------------------------------+
|           Mach Number|             -|             -|         -|          0.35|
+------------------------------------------------------------------------------+
Initialize Jacobian structure (Euler). MG level: 0.
Initialize Jacobian structure (Euler). MG level: 1.
Initialize Jacobian structure (Euler). MG level: 2.

------------------- Numerics Preprocessing ( Zone 0 ) -------------------

----------------- Integration Preprocessing ( Zone 0 ) ------------------

------------------- Iteration Preprocessing ( Zone 0 ) ------------------
Euler/Navier-Stokes/RANS fluid iteration.

------------------------------ Begin Solver -----------------------------

Simulation Run using the Single-zone Driver
+-------------------------------------------------------------------------------------------------------+
|  Inner_Iter|   Time_Iter|    rms[Rho]|   rms[RhoU]|   rms[RhoV]|   rms[RhoE]|          CL|          CD|
+-------------------------------------------------------------------------------------------------------+
|           0|           0|   -1.065090|    1.116148|    1.111364|    4.407079|    0.075017|    0.250938|
|           1|           0|   -1.175195|    1.037243|    1.023703|    4.298712|    0.132499|    0.429466|
|           2|           0|   -1.211863|    1.072243|    1.025601|    4.263720|    0.174305|    0.545312|
|           3|           0|   -1.202072|    1.141316|    1.071579|    4.273923|    0.204297|    0.609147|
|           4|           0|   -1.180606|    1.208542|    1.123035|    4.295204|    0.226305|    0.631215|
|           5|           0|   -1.161727|    1.268512|    1.168297|    4.313814|    0.243606|    0.621232|
|           6|           0|   -1.147371|    1.321810|    1.206172|    4.327805|    0.258693|    0.587960|
|           7|           0|   -1.135575|    1.369464|    1.238037|    4.338973|    0.273227|    0.538966|
|           8|           0|   -1.123816|    1.412133|    1.265778|    4.349679|    0.288097|    0.480541|
|           9|           0|   -1.110539|    1.450309|    1.290944|    4.361440|    0.303578|    0.417771|
|          10|           0|   -1.095360|    1.484491|    1.314710|    4.374689|    0.319581|    0.354613|
+-----------------------------------------------------------------------+
|        File Writing Summary       |              Filename             |
+-----------------------------------------------------------------------+
|SU2 restart                        |solution_flow.dat                  |
|Paraview                           |flow.vtu                           |
|Paraview surface                   |surface_flow.vtu                   |
+-----------------------------------------------------------------------+

Writing the forces breakdown file (forces_breakdown.dat).
+-------------------------------------------------------------------------------------------------------+
|  Inner_Iter|   Time_Iter|    rms[Rho]|   rms[RhoU]|   rms[RhoV]|   rms[RhoE]|          CL|          CD|
+-------------------------------------------------------------------------------------------------------+
|          11|           0|   -1.078802|    1.515113|    1.338022|    4.389010|    0.335829|    0.293938|
|          12|           0|   -1.061961|    1.542442|    1.361240|    4.403391|    0.351930|    0.237615|
|          13|           0|   -1.045814|    1.566694|    1.384363|    4.416912|    0.367503|    0.186744|
|          14|           0|   -1.031222|    1.587819|    1.406906|    4.428675|    0.382129|    0.141818|
|          15|           0|   -1.018532|    1.605822|    1.428257|    4.438371|    0.395447|    0.102861|
|          16|           0|   -1.007766|    1.620339|    1.447672|    4.445997|    0.407122|    0.069571|
|          17|           0|   -0.998189|    1.631206|    1.464267|    4.452448|    0.416895|    0.041454|
|          18|           0|   -0.988998|    1.638186|    1.477411|    4.458765|    0.424557|    0.017926|
|          19|           0|   -0.979048|    1.641084|    1.486713|    4.466472|    0.429930|   -0.001612|
|          20|           0|   -0.967157|    1.640231|    1.492072|    4.477335|    0.432928|   -0.017722|
+-----------------------------------------------------------------------+
|        File Writing Summary       |              Filename             |
+-----------------------------------------------------------------------+
|SU2 restart                        |solution_flow.dat                  |
|Paraview                           |flow.vtu                           |
|Paraview surface                   |surface_flow.vtu                   |
+-----------------------------------------------------------------------+

Writing the forces breakdown file (forces_breakdown.dat).
+-------------------------------------------------------------------------------------------------------+
|  Inner_Iter|   Time_Iter|    rms[Rho]|   rms[RhoU]|   rms[RhoV]|   rms[RhoE]|          CL|          CD|
+-------------------------------------------------------------------------------------------------------+
|          21|           0|   -0.952459|    1.636331|    1.494090|    4.492647|    0.433528|   -0.030917|
|          22|           0|   -0.935044|    1.631243|    1.494107|    4.512437|    0.431742|   -0.041649|
|          23|           0|   -0.915917|    1.626128|    1.494002|    4.535471|    0.427652|   -0.050296|
|          24|           0|   -0.896770|    1.623538|    1.496214|    4.559352|    0.421393|   -0.057159|
|          25|           0|   -0.879600|    1.625162|    1.503799|    4.581378|    0.413180|   -0.062460|
|          26|           0|   -0.866404|    1.632509|    1.518353|    4.599090|    0.403233|   -0.066358|
|          27|           0|   -0.858655|    1.644556|    1.539411|    4.610674|    0.391833|   -0.068964|
|          28|           0|   -0.857447|    1.659022|    1.564783|    4.614706|    0.379285|   -0.070357|
|          29|           0|   -0.862930|    1.673384|    1.591292|    4.610764|    0.365880|   -0.070596|
|          30|           0|   -0.873766|    1.685314|    1.615756|    4.599751|    0.351932|   -0.069727|
+-----------------------------------------------------------------------+
|        File Writing Summary       |              Filename             |
+-----------------------------------------------------------------------+
|SU2 restart                        |solution_flow.dat                  |
|Paraview                           |flow.vtu                           |
|Paraview surface                   |surface_flow.vtu                   |
+-----------------------------------------------------------------------+

Writing the forces breakdown file (forces_breakdown.dat).
+-------------------------------------------------------------------------------------------------------+
|  Inner_Iter|   Time_Iter|    rms[Rho]|   rms[RhoU]|   rms[RhoV]|   rms[RhoE]|          CL|          CD|
+-------------------------------------------------------------------------------------------------------+
|          31|           0|   -0.888666|    1.692624|    1.635355|    4.582420|    0.337746|   -0.067793|
|          32|           0|   -0.901912|    1.694052|    1.647774|    4.564227|    0.323629|   -0.064837|
|          33|           0|   -0.907012|    1.689099|    1.651300|    4.552201|    0.309870|   -0.060908|
|          34|           0|   -0.898371|    1.678905|    1.645266|    4.554369|    0.296715|   -0.056073|
|          35|           0|   -0.874460|    1.665972|    1.629239|    4.575116|    0.284389|   -0.050413|
|          36|           0|   -0.839555|    1.653718|    1.604070|    4.611002|    0.273091|   -0.044019|
|          37|           0|   -0.800646|    1.648071|    1.572275|    4.653651|    0.263013|   -0.036993|
|          38|           0|   -0.763782|    1.654362|    1.539865|    4.695612|    0.254283|   -0.029451|
|          39|           0|   -0.732367|    1.675528|    1.518042|    4.732344|    0.247025|   -0.021519|
|          40|           0|   -0.708484|    1.709383|    1.522338|    4.761241|    0.241302|   -0.013333|
+-----------------------------------------------------------------------+
|        File Writing Summary       |              Filename             |
+-----------------------------------------------------------------------+
|SU2 restart                        |solution_flow.dat                  |
|Paraview                           |flow.vtu                           |
|Paraview surface                   |surface_flow.vtu                   |
+-----------------------------------------------------------------------+

Writing the forces breakdown file (forces_breakdown.dat).
+-------------------------------------------------------------------------------------------------------+
|  Inner_Iter|   Time_Iter|    rms[Rho]|   rms[RhoU]|   rms[RhoV]|   rms[RhoE]|          CL|          CD|
+-------------------------------------------------------------------------------------------------------+
|          41|           0|   -0.694080|    1.749046|    1.555848|    4.779871|    0.237171|   -0.005031|
|          42|           0|   -0.689709|    1.788210|    1.608346|    4.787476|    0.234665|    0.003253|
|          43|           0|   -0.694907|    1.823757|    1.666473|    4.784597|    0.233786|    0.011386|
|          44|           0|   -0.709478|    1.852387|    1.721120|    4.771052|    0.234525|    0.019243|
|          45|           0|   -0.731936|    1.873731|    1.768075|    4.747594|    0.236835|    0.026702|
|          46|           0|   -0.760010|    1.886824|    1.805483|    4.715263|    0.240655|    0.033656|
|          47|           0|   -0.789223|    1.891473|    1.832585|    4.677128|    0.245899|    0.040013|
|          48|           0|   -0.812290|    1.887862|    1.849495|    4.639875|    0.252470|    0.045692|
|          49|           0|   -0.819972|    1.876977|    1.856628|    4.615707|    0.260252|    0.050632|
|          50|           0|   -0.808179|    1.858130|    1.854522|    4.614758|    0.269110|    0.054790|
+-----------------------------------------------------------------------+
|        File Writing Summary       |              Filename             |
+-----------------------------------------------------------------------+
|SU2 restart                        |solution_flow.dat                  |
|Paraview                           |flow.vtu                           |
|Paraview surface                   |surface_flow.vtu                   |
+-----------------------------------------------------------------------+

Writing the forces breakdown file (forces_breakdown.dat).
+-------------------------------------------------------------------------------------------------------+
|  Inner_Iter|   Time_Iter|    rms[Rho]|   rms[RhoU]|   rms[RhoV]|   rms[RhoE]|          CL|          CD|
+-------------------------------------------------------------------------------------------------------+
|          51|           0|   -0.779483|    1.831868|    1.842918|    4.639382|    0.278911|    0.058137|
|          52|           0|   -0.741783|    1.798931|    1.821730|    4.680582|    0.289528|    0.060666|
|          53|           0|   -0.702960|    1.761392|    1.793197|    4.726614|    0.300821|    0.062383|
|          54|           0|   -0.668738|    1.724165|    1.757194|    4.768707|    0.312650|    0.063313|
|          55|           0|   -0.640615|    1.693126|    1.718127|    4.804277|    0.324876|    0.063490|
|          56|           0|   -0.619626|    1.674984|    1.682940|    4.831942|    0.337365|    0.062964|
|          57|           0|   -0.606488|    1.672317|    1.658733|    4.850581|    0.349967|    0.061790|
|          58|           0|   -0.600390|    1.684181|    1.652115|    4.861185|    0.362545|    0.060036|
|          59|           0|   -0.600535|    1.706319|    1.665584|    4.864367|    0.374957|    0.057772|
|          60|           0|   -0.605453|    1.733326|    1.694951|    4.861559|    0.387051|    0.055074|
+-----------------------------------------------------------------------+
|        File Writing Summary       |              Filename             |
+-----------------------------------------------------------------------+
|SU2 restart                        |solution_flow.dat                  |
|Paraview                           |flow.vtu                           |
|Paraview surface                   |surface_flow.vtu                   |
+-----------------------------------------------------------------------+

Writing the forces breakdown file (forces_breakdown.dat).
+-------------------------------------------------------------------------------------------------------+
|  Inner_Iter|   Time_Iter|    rms[Rho]|   rms[RhoU]|   rms[RhoV]|   rms[RhoE]|          CL|          CD|
+-------------------------------------------------------------------------------------------------------+
|          61|           0|   -0.615311|    1.759810|    1.732373|    4.852226|    0.398711|    0.052024|
|          62|           0|   -0.628721|    1.784707|    1.770961|    4.837579|    0.409810|    0.048700|
|          63|           0|   -0.643917|    1.805967|    1.806335|    4.819285|    0.420227|    0.045182|
|          64|           0|   -0.659488|    1.822915|    1.836173|    4.798451|    0.429852|    0.041544|
|          65|           0|   -0.673210|    1.835843|    1.859918|    4.777270|    0.438585|    0.037860|
|          66|           0|   -0.683747|    1.844696|    1.877663|    4.757386|    0.446351|    0.034198|
|          67|           0|   -0.689553|    1.850243|    1.889458|    4.741389|    0.453068|    0.030621|
|          68|           0|   -0.690620|    1.853150|    1.895919|    4.730588|    0.458684|    0.027182|
|          69|           0|   -0.687367|    1.851504|    1.897112|    4.725660|    0.463154|    0.023931|
|          70|           0|   -0.680618|    1.846403|    1.893521|    4.726813|    0.466461|    0.020908|
+-----------------------------------------------------------------------+
|        File Writing Summary       |              Filename             |
+-----------------------------------------------------------------------+
|SU2 restart                        |solution_flow.dat                  |
|Paraview                           |flow.vtu                           |
|Paraview surface                   |surface_flow.vtu                   |
+-----------------------------------------------------------------------+

Writing the forces breakdown file (forces_breakdown.dat).
+-------------------------------------------------------------------------------------------------------+
|  Inner_Iter|   Time_Iter|    rms[Rho]|   rms[RhoU]|   rms[RhoV]|   rms[RhoE]|          CL|          CD|
+-------------------------------------------------------------------------------------------------------+
|          71|           0|   -0.671685|    1.837718|    1.885784|    4.732991|    0.468597|    0.018145|
|          72|           0|   -0.661967|    1.826861|    1.874218|    4.742591|    0.469590|    0.015670|
|          73|           0|   -0.652423|    1.812960|    1.859168|    4.754037|    0.469467|    0.013498|
|          74|           0|   -0.643984|    1.796897|    1.841637|    4.765758|    0.468283|    0.011644|
|          75|           0|   -0.637596|    1.779739|    1.822170|    4.776259|    0.466099|    0.010108|
|          76|           0|   -0.633740|    1.762794|    1.801850|    4.784571|    0.462987|    0.008889|
|          77|           0|   -0.632485|    1.746714|    1.781039|    4.790495|    0.459043|    0.007981|
|          78|           0|   -0.633884|    1.732188|    1.761694|    4.793712|    0.454374|    0.007369|
|          79|           0|   -0.638109|    1.720562|    1.744053|    4.793875|    0.449099|    0.007038|
|          80|           0|   -0.644876|    1.711351|    1.729652|    4.791166|    0.443344|    0.006965|
+-----------------------------------------------------------------------+
|        File Writing Summary       |              Filename             |
+-----------------------------------------------------------------------+
|SU2 restart                        |solution_flow.dat                  |
|Paraview                           |flow.vtu                           |
|Paraview surface                   |surface_flow.vtu                   |
+-----------------------------------------------------------------------+

Writing the forces breakdown file (forces_breakdown.dat).
+-------------------------------------------------------------------------------------------------------+
|  Inner_Iter|   Time_Iter|    rms[Rho]|   rms[RhoU]|   rms[RhoV]|   rms[RhoE]|          CL|          CD|
+-------------------------------------------------------------------------------------------------------+
|          81|           0|   -0.654202|    1.705117|    1.719830|    4.785480|    0.437241|    0.007129|
|          82|           0|   -0.665853|    1.702557|    1.714280|    4.777008|    0.430932|    0.007503|
|          83|           0|   -0.679601|    1.702644|    1.712936|    4.765742|    0.424559|    0.008061|
|          84|           0|   -0.694551|    1.704193|    1.715181|    4.752500|    0.418253|    0.008775|
|          85|           0|   -0.710422|    1.707314|    1.719837|    4.737490|    0.412154|    0.009618|
|          86|           0|   -0.726552|    1.711553|    1.725742|    4.721111|    0.406375|    0.010563|
|          87|           0|   -0.741871|    1.715170|    1.731987|    4.704355|    0.401038|    0.011582|
|          88|           0|   -0.755233|    1.718070|    1.737628|    4.688517|    0.396239|    0.012647|
|          89|           0|   -0.766318|    1.719483|    1.741830|    4.673766|    0.392073|    0.013736|
|          90|           0|   -0.775028|    1.719611|    1.744526|    4.660471|    0.388613|    0.014825|
+-----------------------------------------------------------------------+
|        File Writing Summary       |              Filename             |
+-----------------------------------------------------------------------+
|SU2 restart                        |solution_flow.dat                  |
|Paraview                           |flow.vtu                           |
|Paraview surface                   |surface_flow.vtu                   |
+-----------------------------------------------------------------------+

Writing the forces breakdown file (forces_breakdown.dat).
+-------------------------------------------------------------------------------------------------------+
|  Inner_Iter|   Time_Iter|    rms[Rho]|   rms[RhoU]|   rms[RhoV]|   rms[RhoE]|          CL|          CD|
+-------------------------------------------------------------------------------------------------------+
|          91|           0|   -0.780872|    1.718614|    1.745347|    4.649560|    0.385930|    0.015894|
|          92|           0|   -0.783954|    1.715928|    1.744087|    4.641344|    0.384064|    0.016923|
|          93|           0|   -0.784679|    1.711540|    1.740617|    4.635896|    0.383062|    0.017899|
|          94|           0|   -0.783675|    1.706306|    1.735435|    4.632944|    0.382928|    0.018808|
|          95|           0|   -0.782587|    1.700275|    1.728997|    4.630799|    0.383660|    0.019642|
|          96|           0|   -0.781310|    1.693100|    1.720721|    4.629738|    0.385245|    0.020391|
|          97|           0|   -0.781290|    1.685897|    1.711515|    4.628258|    0.387659|    0.021052|
|          98|           0|   -0.783252|    1.678490|    1.702211|    4.625422|    0.390842|    0.021620|
|          99|           0|   -0.787053|    1.670615|    1.692306|    4.621227|    0.394745|    0.022096|
|         100|           0|   -0.792266|    1.663097|    1.682349|    4.616123|    0.399283|    0.022479|
+-----------------------------------------------------------------------+
|        File Writing Summary       |              Filename             |
+-----------------------------------------------------------------------+
|SU2 restart                        |solution_flow.dat                  |
|Paraview                           |flow.vtu                           |
|Paraview surface                   |surface_flow.vtu                   |
+-----------------------------------------------------------------------+

Writing the forces breakdown file (forces_breakdown.dat).
+-------------------------------------------------------------------------------------------------------+
|  Inner_Iter|   Time_Iter|    rms[Rho]|   rms[RhoU]|   rms[RhoV]|   rms[RhoE]|          CL|          CD|
+-------------------------------------------------------------------------------------------------------+
|         101|           0|   -0.799618|    1.655953|    1.672606|    4.609240|    0.404387|    0.022773|
|         102|           0|   -0.809344|    1.648212|    1.663263|    4.600246|    0.409964|    0.022980|
|         103|           0|   -0.821140|    1.640964|    1.654479|    4.589563|    0.415926|    0.023104|
|         104|           0|   -0.835459|    1.633795|    1.645878|    4.576706|    0.422167|    0.023150|
|         105|           0|   -0.851168|    1.626002|    1.637581|    4.562990|    0.428590|    0.023123|
|         106|           0|   -0.868425|    1.618455|    1.629449|    4.548287|    0.435087|    0.023027|
|         107|           0|   -0.886370|    1.610001|    1.621575|    4.533511|    0.441569|    0.022870|
|         108|           0|   -0.904590|    1.600034|    1.612995|    4.519181|    0.447933|    0.022658|
|         109|           0|   -0.922687|    1.588228|    1.603508|    4.505185|    0.454092|    0.022396|
|         110|           0|   -0.939915|    1.574874|    1.592930|    4.492244|    0.459958|    0.022090|
+-----------------------------------------------------------------------+
|        File Writing Summary       |              Filename             |
+-----------------------------------------------------------------------+
|SU2 restart                        |solution_flow.dat                  |
|Paraview                           |flow.vtu                           |
|Paraview surface                   |surface_flow.vtu                   |
+-----------------------------------------------------------------------+

Writing the forces breakdown file (forces_breakdown.dat).
+-------------------------------------------------------------------------------------------------------+
|  Inner_Iter|   Time_Iter|    rms[Rho]|   rms[RhoU]|   rms[RhoV]|   rms[RhoE]|          CL|          CD|
+-------------------------------------------------------------------------------------------------------+
|         111|           0|   -0.956104|    1.561054|    1.581822|    4.480314|    0.465464|    0.021747|
|         112|           0|   -0.970887|    1.546367|    1.570022|    4.469368|    0.470535|    0.021369|
|         113|           0|   -0.983660|    1.531931|    1.557766|    4.459774|    0.475126|    0.020966|
|         114|           0|   -0.994431|    1.517803|    1.545181|    4.451202|    0.479181|    0.020539|
|         115|           0|   -1.003391|    1.504320|    1.532543|    4.443426|    0.482679|    0.020094|
|         116|           0|   -1.011052|    1.492053|    1.520351|    4.435807|    0.485582|    0.019634|
|         117|           0|   -1.017644|    1.481884|    1.509062|    4.428202|    0.487890|    0.019164|
|         118|           0|   -1.023739|    1.474587|    1.498997|    4.420242|    0.489590|    0.018686|
|         119|           0|   -1.029698|    1.469773|    1.490330|    4.411630|    0.490705|    0.018206|
|         120|           0|   -1.036239|    1.467762|    1.483444|    4.401711|    0.491247|    0.017725|
+-----------------------------------------------------------------------+
|        File Writing Summary       |              Filename             |
+-----------------------------------------------------------------------+
|SU2 restart                        |solution_flow.dat                  |
|Paraview                           |flow.vtu                           |
|Paraview surface                   |surface_flow.vtu                   |
+-----------------------------------------------------------------------+

Writing the forces breakdown file (forces_breakdown.dat).
+-------------------------------------------------------------------------------------------------------+
|  Inner_Iter|   Time_Iter|    rms[Rho]|   rms[RhoU]|   rms[RhoV]|   rms[RhoE]|          CL|          CD|
+-------------------------------------------------------------------------------------------------------+
|         121|           0|   -1.043520|    1.468765|    1.478325|    4.390512|    0.491251|    0.017249|
|         122|           0|   -1.051711|    1.472487|    1.474788|    4.377990|    0.490746|    0.016780|
|         123|           0|   -1.060670|    1.477836|    1.472704|    4.364465|    0.489782|    0.016323|
|         124|           0|   -1.070386|    1.483558|    1.471494|    4.349986|    0.488402|    0.015879|
|         125|           0|   -1.081070|    1.488723|    1.470713|    4.334452|    0.486668|    0.015455|
|         126|           0|   -1.092817|    1.493230|    1.470051|    4.317956|    0.484631|    0.015051|
|         127|           0|   -1.105561|    1.496595|    1.469146|    4.300740|    0.482359|    0.014673|
|         128|           0|   -1.118956|    1.498855|    1.467578|    4.283510|    0.479904|    0.014321|
|         129|           0|   -1.132888|    1.498891|    1.464875|    4.266360|    0.477334|    0.014004|
|         130|           0|   -1.147189|    1.497011|    1.460654|    4.249903|    0.474698|    0.013718|
+-----------------------------------------------------------------------+
|        File Writing Summary       |              Filename             |
+-----------------------------------------------------------------------+
|SU2 restart                        |solution_flow.dat                  |
|Paraview                           |flow.vtu                           |
|Paraview surface                   |surface_flow.vtu                   |
+-----------------------------------------------------------------------+

Writing the forces breakdown file (forces_breakdown.dat).
+-------------------------------------------------------------------------------------------------------+
|  Inner_Iter|   Time_Iter|    rms[Rho]|   rms[RhoU]|   rms[RhoV]|   rms[RhoE]|          CL|          CD|
+-------------------------------------------------------------------------------------------------------+
|         131|           0|   -1.161954|    1.493503|    1.454564|    4.234251|    0.472063|    0.013473|
|         132|           0|   -1.176819|    1.487942|    1.446365|    4.220071|    0.469472|    0.013268|
|         133|           0|   -1.191307|    1.480231|    1.435759|    4.208040|    0.466987|    0.013107|
|         134|           0|   -1.205202|    1.470313|    1.422622|    4.198294|    0.464641|    0.012991|
|         135|           0|   -1.217985|    1.458174|    1.407027|    4.191208|    0.462482|    0.012926|
|         136|           0|   -1.229199|    1.443824|    1.389191|    4.187002|    0.460531|    0.012908|
|         137|           0|   -1.238893|    1.427188|    1.369401|    4.185049|    0.458827|    0.012944|
|         138|           0|   -1.246890|    1.408258|    1.347707|    4.185156|    0.457379|    0.013030|
|         139|           0|   -1.253924|    1.387592|    1.324539|    4.185906|    0.456215|    0.013169|
|         140|           0|   -1.259780|    1.365638|    1.300639|    4.187159|    0.455332|    0.013358|
+-----------------------------------------------------------------------+
|        File Writing Summary       |              Filename             |
+-----------------------------------------------------------------------+
|SU2 restart                        |solution_flow.dat                  |
|Paraview                           |flow.vtu                           |
|Paraview surface                   |surface_flow.vtu                   |
+-----------------------------------------------------------------------+

Writing the forces breakdown file (forces_breakdown.dat).
+-------------------------------------------------------------------------------------------------------+
|  Inner_Iter|   Time_Iter|    rms[Rho]|   rms[RhoU]|   rms[RhoV]|   rms[RhoE]|          CL|          CD|
+-------------------------------------------------------------------------------------------------------+
|         141|           0|   -1.265296|    1.343291|    1.276946|    4.187707|    0.454750|    0.013598|
|         142|           0|   -1.270571|    1.321255|    1.254702|    4.187417|    0.454456|    0.013884|
|         143|           0|   -1.275953|    1.300632|    1.235346|    4.185930|    0.454458|    0.014215|
|         144|           0|   -1.281598|    1.282775|    1.220198|    4.182958|    0.454739|    0.014586|
|         145|           0|   -1.287866|    1.268603|    1.210320|    4.178067|    0.455295|    0.014995|
|         146|           0|   -1.294578|    1.258879|    1.206212|    4.171409|    0.456100|    0.015432|
|         147|           0|   -1.301981|    1.254247|    1.207777|    4.162820|    0.457145|    0.015894|
|         148|           0|   -1.309845|    1.254406|    1.214019|    4.152557|    0.458401|    0.016373|
|         149|           0|   -1.318021|    1.258545|    1.223552|    4.140828|    0.459848|    0.016865|
|         150|           0|   -1.326677|    1.265473|    1.234968|    4.127379|    0.461458|    0.017358|
+-----------------------------------------------------------------------+
|        File Writing Summary       |              Filename             |
+-----------------------------------------------------------------------+
|SU2 restart                        |solution_flow.dat                  |
|Paraview                           |flow.vtu                           |
|Paraview surface                   |surface_flow.vtu                   |
+-----------------------------------------------------------------------+

Writing the forces breakdown file (forces_breakdown.dat).
+-------------------------------------------------------------------------------------------------------+
|  Inner_Iter|   Time_Iter|    rms[Rho]|   rms[RhoU]|   rms[RhoV]|   rms[RhoE]|          CL|          CD|
+-------------------------------------------------------------------------------------------------------+
|         151|           0|   -1.335508|    1.274689|    1.247017|    4.112711|    0.463210|    0.017850|
|         152|           0|   -1.343851|    1.282952|    1.257922|    4.097371|    0.465070|    0.018329|
|         153|           0|   -1.351817|    1.290325|    1.267353|    4.081529|    0.467020|    0.018790|
|         154|           0|   -1.358818|    1.296899|    1.274639|    4.066250|    0.469026|    0.019223|
|         155|           0|   -1.364963|    1.301675|    1.279385|    4.051722|    0.471070|    0.019625|
|         156|           0|   -1.369734|    1.304352|    1.281352|    4.039067|    0.473124|    0.019986|
|         157|           0|   -1.373472|    1.305231|    1.280211|    4.028563|    0.475172|    0.020302|
|         158|           0|   -1.376163|    1.303717|    1.276005|    4.020597|    0.477186|    0.020564|
|         159|           0|   -1.377991|    1.299675|    1.268778|    4.015481|    0.479155|    0.020772|
|         160|           0|   -1.379215|    1.293643|    1.258378|    4.013202|    0.481054|    0.020918|
+-----------------------------------------------------------------------+
|        File Writing Summary       |              Filename             |
+-----------------------------------------------------------------------+
|SU2 restart                        |solution_flow.dat                  |
|Paraview                           |flow.vtu                           |
|Paraview surface                   |surface_flow.vtu                   |
+-----------------------------------------------------------------------+

Writing the forces breakdown file (forces_breakdown.dat).
+-------------------------------------------------------------------------------------------------------+
|  Inner_Iter|   Time_Iter|    rms[Rho]|   rms[RhoU]|   rms[RhoV]|   rms[RhoE]|          CL|          CD|
+-------------------------------------------------------------------------------------------------------+
|         161|           0|   -1.380163|    1.285326|    1.244712|    4.013207|    0.482873|    0.021001|
|         162|           0|   -1.381095|    1.274420|    1.227961|    4.015049|    0.484596|    0.021017|
|         163|           0|   -1.382485|    1.261210|    1.208251|    4.017895|    0.486217|    0.020968|
|         164|           0|   -1.384522|    1.245318|    1.185710|    4.021178|    0.487723|    0.020851|
|         165|           0|   -1.387337|    1.227065|    1.160588|    4.024420|    0.489112|    0.020669|
|         166|           0|   -1.390852|    1.206977|    1.133222|    4.027535|    0.490375|    0.020422|
|         167|           0|   -1.395234|    1.185207|    1.104223|    4.029937|    0.491509|    0.020115|
|         168|           0|   -1.400622|    1.162326|    1.074457|    4.031248|    0.492510|    0.019750|
|         169|           0|   -1.406994|    1.138929|    1.045525|    4.031263|    0.493381|    0.019333|
|         170|           0|   -1.414930|    1.116002|    1.018818|    4.029164|    0.494118|    0.018869|
+-----------------------------------------------------------------------+
|        File Writing Summary       |              Filename             |
+-----------------------------------------------------------------------+
|SU2 restart                        |solution_flow.dat                  |
|Paraview                           |flow.vtu                           |
|Paraview surface                   |surface_flow.vtu                   |
+-----------------------------------------------------------------------+

Writing the forces breakdown file (forces_breakdown.dat).
+-------------------------------------------------------------------------------------------------------+
|  Inner_Iter|   Time_Iter|    rms[Rho]|   rms[RhoU]|   rms[RhoV]|   rms[RhoE]|          CL|          CD|
+-------------------------------------------------------------------------------------------------------+
|         171|           0|   -1.424686|    1.094303|    0.995927|    4.024548|    0.494729|    0.018366|
|         172|           0|   -1.435962|    1.074517|    0.978570|    4.017720|    0.495212|    0.017828|
|         173|           0|   -1.448784|    1.057440|    0.967917|    4.008420|    0.495573|    0.017265|
|         174|           0|   -1.462582|    1.043430|    0.963909|    3.997108|    0.495815|    0.016684|
|         175|           0|   -1.477038|    1.033373|    0.965839|    3.984010|    0.495951|    0.016094|
|         176|           0|   -1.492157|    1.027498|    0.972021|    3.968959|    0.495981|    0.015502|
|         177|           0|   -1.507478|    1.025485|    0.980794|    3.952366|    0.495917|    0.014918|
|         178|           0|   -1.522857|    1.026424|    0.990558|    3.934189|    0.495759|    0.014348|
|         179|           0|   -1.537593|    1.029283|    0.999934|    3.915067|    0.495523|    0.013803|
|         180|           0|   -1.551124|    1.033152|    1.007890|    3.895703|    0.495212|    0.013287|
+-----------------------------------------------------------------------+
|        File Writing Summary       |              Filename             |
+-----------------------------------------------------------------------+
|SU2 restart                        |solution_flow.dat                  |
|Paraview                           |flow.vtu                           |
|Paraview surface                   |surface_flow.vtu                   |
+-----------------------------------------------------------------------+

Writing the forces breakdown file (forces_breakdown.dat).
+-------------------------------------------------------------------------------------------------------+
|  Inner_Iter|   Time_Iter|    rms[Rho]|   rms[RhoU]|   rms[RhoV]|   rms[RhoE]|          CL|          CD|
+-------------------------------------------------------------------------------------------------------+
|         181|           0|   -1.563280|    1.037375|    1.013768|    3.876454|    0.494840|    0.012811|
|         182|           0|   -1.573738|    1.041274|    1.017107|    3.857999|    0.494407|    0.012377|
|         183|           0|   -1.582452|    1.044244|    1.017576|    3.840871|    0.493929|    0.011994|
|         184|           0|   -1.589422|    1.045558|    1.015029|    3.825674|    0.493410|    0.011663|
|         185|           0|   -1.594922|    1.045024|    1.009304|    3.812783|    0.492862|    0.011392|
|         186|           0|   -1.599136|    1.042620|    1.000426|    3.802492|    0.492288|    0.011181|
|         187|           0|   -1.602790|    1.038166|    0.988528|    3.794287|    0.491702|    0.011035|
|         188|           0|   -1.606340|    1.031705|    0.973716|    3.787878|    0.491109|    0.010951|
|         189|           0|   -1.610030|    1.023186|    0.956192|    3.783025|    0.490521|    0.010934|
|         190|           0|   -1.614044|    1.012490|    0.935871|    3.779463|    0.489938|    0.010977|
+-----------------------------------------------------------------------+
|        File Writing Summary       |              Filename             |
+-----------------------------------------------------------------------+
|SU2 restart                        |solution_flow.dat                  |
|Paraview                           |flow.vtu                           |
|Paraview surface                   |surface_flow.vtu                   |
+-----------------------------------------------------------------------+

Writing the forces breakdown file (forces_breakdown.dat).
+-------------------------------------------------------------------------------------------------------+
|  Inner_Iter|   Time_Iter|    rms[Rho]|   rms[RhoU]|   rms[RhoV]|   rms[RhoE]|          CL|          CD|
+-------------------------------------------------------------------------------------------------------+
|         191|           0|   -1.618880|    0.999348|    0.913219|    3.776439|    0.489379|    0.011084|
|         192|           0|   -1.624799|    0.984235|    0.888533|    3.773329|    0.488843|    0.011248|
|         193|           0|   -1.632282|    0.967457|    0.861980|    3.769390|    0.488341|    0.011468|
|         194|           0|   -1.640783|    0.948574|    0.834403|    3.765058|    0.487877|    0.011738|
|         195|           0|   -1.650741|    0.928107|    0.806496|    3.759745|    0.487462|    0.012054|
|         196|           0|   -1.662724|    0.906607|    0.779266|    3.752561|    0.487095|    0.012409|
|         197|           0|   -1.676874|    0.884286|    0.753809|    3.743070|    0.486785|    0.012799|
|         198|           0|   -1.693173|    0.861477|    0.731459|    3.731396|    0.486531|    0.013216|
|         199|           0|   -1.711202|    0.838546|    0.713115|    3.717956|    0.486345|    0.013655|
|         200|           0|   -1.730829|    0.815774|    0.699348|    3.702786|    0.486219|    0.014107|
+-----------------------------------------------------------------------+
|        File Writing Summary       |              Filename             |
+-----------------------------------------------------------------------+
|SU2 restart                        |solution_flow.dat                  |
|Paraview                           |flow.vtu                           |
|Paraview surface                   |surface_flow.vtu                   |
+-----------------------------------------------------------------------+

Writing the forces breakdown file (forces_breakdown.dat).
+-------------------------------------------------------------------------------------------------------+
|  Inner_Iter|   Time_Iter|    rms[Rho]|   rms[RhoU]|   rms[RhoV]|   rms[RhoE]|          CL|          CD|
+-------------------------------------------------------------------------------------------------------+
|         201|           0|   -1.751891|    0.793587|    0.690319|    3.685862|    0.486166|    0.014567|
|         202|           0|   -1.774012|    0.772501|    0.685419|    3.667547|    0.486178|    0.015026|
|         203|           0|   -1.796710|    0.753030|    0.683842|    3.648220|    0.486262|    0.015480|
|         204|           0|   -1.819685|    0.735612|    0.684594|    3.628052|    0.486415|    0.015920|
|         205|           0|   -1.842677|    0.720670|    0.686546|    3.607187|    0.486636|    0.016342|
|         206|           0|   -1.865206|    0.708306|    0.688837|    3.585987|    0.486919|    0.016738|
|         207|           0|   -1.886749|    0.698567|    0.690573|    3.564906|    0.487272|    0.017106|
|         208|           0|   -1.906982|    0.691194|    0.691198|    3.544213|    0.487679|    0.017439|
|         209|           0|   -1.925530|    0.685727|    0.690394|    3.524340|    0.488147|    0.017735|
|         210|           0|   -1.942339|    0.681859|    0.687935|    3.505421|    0.488664|    0.017989|
+-----------------------------------------------------------------------+
|        File Writing Summary       |              Filename             |
+-----------------------------------------------------------------------+
|SU2 restart                        |solution_flow.dat                  |
|Paraview                           |flow.vtu                           |
|Paraview surface                   |surface_flow.vtu                   |
+-----------------------------------------------------------------------+

Writing the forces breakdown file (forces_breakdown.dat).
+-------------------------------------------------------------------------------------------------------+
|  Inner_Iter|   Time_Iter|    rms[Rho]|   rms[RhoU]|   rms[RhoV]|   rms[RhoE]|          CL|          CD|
+-------------------------------------------------------------------------------------------------------+
|         211|           0|   -1.957143|    0.679114|    0.683755|    3.487903|    0.489231|    0.018201|
|         212|           0|   -1.970321|    0.676977|    0.677888|    3.471536|    0.489841|    0.018366|
|         213|           0|   -1.982088|    0.675199|    0.670380|    3.456318|    0.490492|    0.018488|
|         214|           0|   -1.992827|    0.673372|    0.661273|    3.441989|    0.491172|    0.018562|
|         215|           0|   -2.002984|    0.671033|    0.650832|    3.428119|    0.491882|    0.018591|
|         216|           0|   -2.012838|    0.667799|    0.639319|    3.414464|    0.492606|    0.018575|
|         217|           0|   -2.022415|    0.664180|    0.627015|    3.401362|    0.493348|    0.018517|
|         218|           0|   -2.031897|    0.660035|    0.614203|    3.388673|    0.494092|    0.018417|
|         219|           0|   -2.041576|    0.655203|    0.601119|    3.376104|    0.494841|    0.018281|
|         220|           0|   -2.051343|    0.649939|    0.588102|    3.363777|    0.495581|    0.018108|
+-----------------------------------------------------------------------+
|        File Writing Summary       |              Filename             |
+-----------------------------------------------------------------------+
|SU2 restart                        |solution_flow.dat                  |
|Paraview                           |flow.vtu                           |
|Paraview surface                   |surface_flow.vtu                   |
+-----------------------------------------------------------------------+

Writing the forces breakdown file (forces_breakdown.dat).
+-------------------------------------------------------------------------------------------------------+
|  Inner_Iter|   Time_Iter|    rms[Rho]|   rms[RhoU]|   rms[RhoV]|   rms[RhoE]|          CL|          CD|
+-------------------------------------------------------------------------------------------------------+
|         221|           0|   -2.061052|    0.644303|    0.575464|    3.351877|    0.496313|    0.017905|
|         222|           0|   -2.070790|    0.638429|    0.563452|    3.340321|    0.497022|    0.017672|
|         223|           0|   -2.081382|    0.632412|    0.552313|    3.328171|    0.497714|    0.017419|
|         224|           0|   -2.092249|    0.626313|    0.542217|    3.316039|    0.498374|    0.017145|
|         225|           0|   -2.103043|    0.620208|    0.533319|    3.304242|    0.499005|    0.016858|
|         226|           0|   -2.113039|    0.614165|    0.525736|    3.293528|    0.499595|    0.016560|
|         227|           0|   -2.122256|    0.608139|    0.519488|    3.283757|    0.500148|    0.016258|
|         228|           0|   -2.130699|    0.602177|    0.514532|    3.274846|    0.500652|    0.015952|
|         229|           0|   -2.138442|    0.596258|    0.510759|    3.266634|    0.501111|    0.015651|
|         230|           0|   -2.145508|    0.590380|    0.508033|    3.259106|    0.501516|    0.015354|
+-----------------------------------------------------------------------+
|        File Writing Summary       |              Filename             |
+-----------------------------------------------------------------------+
|SU2 restart                        |solution_flow.dat                  |
|Paraview                           |flow.vtu                           |
|Paraview surface                   |surface_flow.vtu                   |
+-----------------------------------------------------------------------+

Writing the forces breakdown file (forces_breakdown.dat).
+-------------------------------------------------------------------------------------------------------+
|  Inner_Iter|   Time_Iter|    rms[Rho]|   rms[RhoU]|   rms[RhoV]|   rms[RhoE]|          CL|          CD|
+-------------------------------------------------------------------------------------------------------+
|         231|           0|   -2.152096|    0.584525|    0.506139|    3.251910|    0.501876|    0.015069|
|         232|           0|   -2.158182|    0.578600|    0.504863|    3.245114|    0.502178|    0.014796|
|         233|           0|   -2.163638|    0.572537|    0.503978|    3.238940|    0.502430|    0.014541|
|         234|           0|   -2.168508|    0.566290|    0.503258|    3.233451|    0.502627|    0.014302|
|         235|           0|   -2.172798|    0.559725|    0.502504|    3.228722|    0.502776|    0.014086|
|         236|           0|   -2.176424|    0.552775|    0.501534|    3.225013|    0.502871|    0.013892|
|         237|           0|   -2.179415|    0.545328|    0.500144|    3.222419|    0.502923|    0.013722|
|         238|           0|   -2.181693|    0.537410|    0.498209|    3.221189|    0.502926|    0.013576|
|         239|           0|   -2.183156|    0.528950|    0.495610|    3.221569|    0.502889|    0.013457|
|         240|           0|   -2.183790|    0.519977|    0.492280|    3.223662|    0.502812|    0.013360|
+-----------------------------------------------------------------------+
|        File Writing Summary       |              Filename             |
+-----------------------------------------------------------------------+
|SU2 restart                        |solution_flow.dat                  |
|Paraview                           |flow.vtu                           |
|Paraview surface                   |surface_flow.vtu                   |
+-----------------------------------------------------------------------+

Writing the forces breakdown file (forces_breakdown.dat).
+-------------------------------------------------------------------------------------------------------+
|  Inner_Iter|   Time_Iter|    rms[Rho]|   rms[RhoU]|   rms[RhoV]|   rms[RhoE]|          CL|          CD|
+-------------------------------------------------------------------------------------------------------+
|         241|           0|   -2.183570|    0.510627|    0.488181|    3.227465|    0.502703|    0.013291|
|         242|           0|   -2.182478|    0.500968|    0.483394|    3.232894|    0.502561|    0.013244|
|         243|           0|   -2.180606|    0.491201|    0.477987|    3.239708|    0.502398|    0.013223|
|         244|           0|   -2.178113|    0.481632|    0.472130|    3.247523|    0.502210|    0.013221|
|         245|           0|   -2.174995|    0.472600|    0.466014|    3.256151|    0.502005|    0.013243|
|         246|           0|   -2.171404|    0.464514|    0.459893|    3.265199|    0.501786|    0.013281|
|         247|           0|   -2.167510|    0.457901|    0.454087|    3.274259|    0.501565|    0.013337|
|         248|           0|   -2.163454|    0.453181|    0.448925|    3.282983|    0.501337|    0.013408|
|         249|           0|   -2.159360|    0.450675|    0.444759|    3.291028|    0.501113|    0.013493|
|         250|           0|   -2.155356|    0.450726|    0.441914|    3.298141|    0.500890|    0.013586|
+-----------------------------------------------------------------------+
|        File Writing Summary       |              Filename             |
+-----------------------------------------------------------------------+
|SU2 restart                        |solution_flow.dat                  |
|Paraview                           |flow.vtu                           |
|Paraview surface                   |surface_flow.vtu                   |
+-----------------------------------------------------------------------+

Writing the forces breakdown file (forces_breakdown.dat).
+-------------------------------------------------------------------------------------------------------+
|  Inner_Iter|   Time_Iter|    rms[Rho]|   rms[RhoU]|   rms[RhoV]|   rms[RhoE]|          CL|          CD|
+-------------------------------------------------------------------------------------------------------+
|         251|           0|   -2.151691|    0.453416|    0.440671|    3.303946|    0.500679|    0.013690|
|         252|           0|   -2.148237|    0.458553|    0.441176|    3.308485|    0.500477|    0.013799|
|         253|           0|   -2.145016|    0.465920|    0.443449|    3.311687|    0.500294|    0.013913|
|         254|           0|   -2.141963|    0.475032|    0.447363|    3.313597|    0.500125|    0.014029|
|         255|           0|   -2.139078|    0.485351|    0.452688|    3.314192|    0.499981|    0.014146|
|         256|           0|   -2.136368|    0.496318|    0.459084|    3.313472|    0.499857|    0.014261|
|         257|           0|   -2.133686|    0.507407|    0.466174|    3.311694|    0.499759|    0.014374|
|         258|           0|   -2.130961|    0.518198|    0.473568|    3.309045|    0.499684|    0.014482|
|         259|           0|   -2.128209|    0.528254|    0.480883|    3.305592|    0.499637|    0.014585|
|         260|           0|   -2.125336|    0.537276|    0.487768|    3.301688|    0.499614|    0.014681|
+-----------------------------------------------------------------------+
|        File Writing Summary       |              Filename             |
+-----------------------------------------------------------------------+
|SU2 restart                        |solution_flow.dat                  |
|Paraview                           |flow.vtu                           |
|Paraview surface                   |surface_flow.vtu                   |
+-----------------------------------------------------------------------+

Writing the forces breakdown file (forces_breakdown.dat).
+-------------------------------------------------------------------------------------------------------+
|  Inner_Iter|   Time_Iter|    rms[Rho]|   rms[RhoU]|   rms[RhoV]|   rms[RhoE]|          CL|          CD|
+-------------------------------------------------------------------------------------------------------+
|         261|           0|   -2.122308|    0.545031|    0.493908|    3.297643|    0.499618|    0.014771|
|         262|           0|   -2.119218|    0.551328|    0.499058|    3.293663|    0.499644|    0.014850|
|         263|           0|   -2.115984|    0.555983|    0.502988|    3.290178|    0.499699|    0.014924|
|         264|           0|   -2.112614|    0.558844|    0.505519|    3.287535|    0.499776|    0.014986|
|         265|           0|   -2.109226|    0.559889|    0.506564|    3.285904|    0.499876|    0.015042|
|         266|           0|   -2.105922|    0.559032|    0.506049|    3.285432|    0.499996|    0.015088|
|         267|           0|   -2.102685|    0.556168|    0.503959|    3.286347|    0.500139|    0.015126|
|         268|           0|   -2.099577|    0.551259|    0.500275|    3.288658|    0.500297|    0.015155|
|         269|           0|   -2.096618|    0.544352|    0.495153|    3.292364|    0.500472|    0.015178|
|         270|           0|   -2.094328|    0.535499|    0.488703|    3.296751|    0.500659|    0.015191|
+-----------------------------------------------------------------------+
|        File Writing Summary       |              Filename             |
+-----------------------------------------------------------------------+
|SU2 restart                        |solution_flow.dat                  |
|Paraview                           |flow.vtu                           |
|Paraview surface                   |surface_flow.vtu                   |
+-----------------------------------------------------------------------+

Writing the forces breakdown file (forces_breakdown.dat).
+-------------------------------------------------------------------------------------------------------+
|  Inner_Iter|   Time_Iter|    rms[Rho]|   rms[RhoU]|   rms[RhoV]|   rms[RhoE]|          CL|          CD|
+-------------------------------------------------------------------------------------------------------+
|         271|           0|   -2.092581|    0.524783|    0.481067|    3.301804|    0.500860|    0.015200|
|         272|           0|   -2.091491|    0.512351|    0.472488|    3.307212|    0.501069|    0.015202|
|         273|           0|   -2.091201|    0.498404|    0.463218|    3.312592|    0.501286|    0.015201|
|         274|           0|   -2.091737|    0.483118|    0.453559|    3.317709|    0.501508|    0.015194|
|         275|           0|   -2.092928|    0.466752|    0.443900|    3.322555|    0.501737|    0.015186|
|         276|           0|   -2.094588|    0.449735|    0.434618|    3.327111|    0.501965|    0.015173|
|         277|           0|   -2.097209|    0.432829|    0.426192|    3.330594|    0.502198|    0.015160|
|         278|           0|   -2.100865|    0.416572|    0.418941|    3.332737|    0.502424|    0.015144|
|         279|           0|   -2.105386|    0.401745|    0.413231|    3.333609|    0.502650|    0.015129|
|         280|           0|   -2.110575|    0.389153|    0.409376|    3.333277|    0.502869|    0.015112|
+-----------------------------------------------------------------------+
|        File Writing Summary       |              Filename             |
+-----------------------------------------------------------------------+
|SU2 restart                        |solution_flow.dat                  |
|Paraview                           |flow.vtu                           |
|Paraview surface                   |surface_flow.vtu                   |
+-----------------------------------------------------------------------+

Writing the forces breakdown file (forces_breakdown.dat).
+-------------------------------------------------------------------------------------------------------+
|  Inner_Iter|   Time_Iter|    rms[Rho]|   rms[RhoU]|   rms[RhoV]|   rms[RhoE]|          CL|          CD|
+-------------------------------------------------------------------------------------------------------+
|         281|           0|   -2.116365|    0.379437|    0.407495|    3.331628|    0.503086|    0.015097|
|         282|           0|   -2.122567|    0.373114|    0.407564|    3.328673|    0.503294|    0.015081|
|         283|           0|   -2.128881|    0.370480|    0.409425|    3.324617|    0.503500|    0.015068|
|         284|           0|   -2.135032|    0.371420|    0.412732|    3.319634|    0.503695|    0.015055|
|         285|           0|   -2.140879|    0.375339|    0.417056|    3.313765|    0.503885|    0.015045|
|         286|           0|   -2.146282|    0.381241|    0.421983|    3.307032|    0.504064|    0.015034|
|         287|           0|   -2.150877|    0.388956|    0.427059|    3.299937|    0.504238|    0.015026|
|         288|           0|   -2.154669|    0.397774|    0.431897|    3.292511|    0.504401|    0.015018|
|         289|           0|   -2.157702|    0.407131|    0.436203|    3.284824|    0.504558|    0.015011|
|         290|           0|   -2.159689|    0.416353|    0.439654|    3.277375|    0.504705|    0.015004|
+-----------------------------------------------------------------------+
|        File Writing Summary       |              Filename             |
+-----------------------------------------------------------------------+
|SU2 restart                        |solution_flow.dat                  |
|Paraview                           |flow.vtu                           |
|Paraview surface                   |surface_flow.vtu                   |
+-----------------------------------------------------------------------+

Writing the forces breakdown file (forces_breakdown.dat).
+-------------------------------------------------------------------------------------------------------+
|  Inner_Iter|   Time_Iter|    rms[Rho]|   rms[RhoU]|   rms[RhoV]|   rms[RhoE]|          CL|          CD|
+-------------------------------------------------------------------------------------------------------+
|         291|           0|   -2.160882|    0.424754|    0.441998|    3.270089|    0.504846|    0.014998|
|         292|           0|   -2.161172|    0.432212|    0.443109|    3.263401|    0.504980|    0.014992|
|         293|           0|   -2.160792|    0.438495|    0.442904|    3.257388|    0.505111|    0.014986|
|         294|           0|   -2.159875|    0.443513|    0.441281|    3.252244|    0.505231|    0.014978|
|         295|           0|   -2.158689|    0.446942|    0.438217|    3.247950|    0.505351|    0.014970|
|         296|           0|   -2.157606|    0.448759|    0.433725|    3.244319|    0.505464|    0.014959|
|         297|           0|   -2.156735|    0.448877|    0.427819|    3.241440|    0.505573|    0.014948|
|         298|           0|   -2.156235|    0.447224|    0.420556|    3.239256|    0.505676|    0.014933|
|         299|           0|   -2.156247|    0.443820|    0.412103|    3.237674|    0.505776|    0.014917|
|         300|           0|   -2.156940|    0.438670|    0.402551|    3.236503|    0.505868|    0.014896|
+-----------------------------------------------------------------------+
|        File Writing Summary       |              Filename             |
+-----------------------------------------------------------------------+
|SU2 restart                        |solution_flow.dat                  |
|Paraview                           |flow.vtu                           |
|Paraview surface                   |surface_flow.vtu                   |
+-----------------------------------------------------------------------+

Writing the forces breakdown file (forces_breakdown.dat).
+-------------------------------------------------------------------------------------------------------+
|  Inner_Iter|   Time_Iter|    rms[Rho]|   rms[RhoU]|   rms[RhoV]|   rms[RhoE]|          CL|          CD|
+-------------------------------------------------------------------------------------------------------+
|         301|           0|   -2.158429|    0.431811|    0.392039|    3.235571|    0.505961|    0.014874|
|         302|           0|   -2.160771|    0.423343|    0.380751|    3.234751|    0.506048|    0.014847|
|         303|           0|   -2.164026|    0.413427|    0.368904|    3.233876|    0.506131|    0.014818|
|         304|           0|   -2.168137|    0.402170|    0.356725|    3.232903|    0.506210|    0.014784|
|         305|           0|   -2.173147|    0.389776|    0.344518|    3.231650|    0.506286|    0.014749|
|         306|           0|   -2.179084|    0.376452|    0.332548|    3.229935|    0.506356|    0.014709|
|         307|           0|   -2.186003|    0.362491|    0.321148|    3.227577|    0.506423|    0.014667|
|         308|           0|   -2.193729|    0.348227|    0.310661|    3.224651|    0.506486|    0.014622|
|         309|           0|   -2.202219|    0.334051|    0.301312|    3.221020|    0.506544|    0.014576|
|         310|           0|   -2.211335|    0.320378|    0.293267|    3.216703|    0.506595|    0.014526|
+-----------------------------------------------------------------------+
|        File Writing Summary       |              Filename             |
+-----------------------------------------------------------------------+
|SU2 restart                        |solution_flow.dat                  |
|Paraview                           |flow.vtu                           |
|Paraview surface                   |surface_flow.vtu                   |
+-----------------------------------------------------------------------+

Writing the forces breakdown file (forces_breakdown.dat).
+-------------------------------------------------------------------------------------------------------+
|  Inner_Iter|   Time_Iter|    rms[Rho]|   rms[RhoU]|   rms[RhoV]|   rms[RhoE]|          CL|          CD|
+-------------------------------------------------------------------------------------------------------+
|         311|           0|   -2.220961|    0.307635|    0.286643|    3.211673|    0.506643|    0.014476|
|         312|           0|   -2.231014|    0.296306|    0.281474|    3.205840|    0.506682|    0.014424|
|         313|           0|   -2.241289|    0.286793|    0.277708|    3.199285|    0.506719|    0.014372|
|         314|           0|   -2.251537|    0.279361|    0.275223|    3.192155|    0.506745|    0.014320|
|         315|           0|   -2.261665|    0.274188|    0.273854|    3.184373|    0.506768|    0.014269|
|         316|           0|   -2.271380|    0.271254|    0.273358|    3.176108|    0.506782|    0.014218|
|         317|           0|   -2.280480|    0.270458|    0.273500|    3.167440|    0.506793|    0.014170|
|         318|           0|   -2.288781|    0.271607|    0.274012|    3.158528|    0.506793|    0.014124|
|         319|           0|   -2.296147|    0.274350|    0.274625|    3.149480|    0.506789|    0.014082|
|         320|           0|   -2.302444|    0.278248|    0.275109|    3.140436|    0.506774|    0.014041|
+-----------------------------------------------------------------------+
|        File Writing Summary       |              Filename             |
+-----------------------------------------------------------------------+
|SU2 restart                        |solution_flow.dat                  |
|Paraview                           |flow.vtu                           |
|Paraview surface                   |surface_flow.vtu                   |
+-----------------------------------------------------------------------+

Writing the forces breakdown file (forces_breakdown.dat).
+-------------------------------------------------------------------------------------------------------+
|  Inner_Iter|   Time_Iter|    rms[Rho]|   rms[RhoU]|   rms[RhoV]|   rms[RhoE]|          CL|          CD|
+-------------------------------------------------------------------------------------------------------+
|         321|           0|   -2.307546|    0.282794|    0.275242|    3.131612|    0.506756|    0.014006|
|         322|           0|   -2.311393|    0.287626|    0.274840|    3.123226|    0.506726|    0.013974|
|         323|           0|   -2.314070|    0.292381|    0.273824|    3.115418|    0.506696|    0.013948|
|         324|           0|   -2.315775|    0.296794|    0.272121|    3.108215|    0.506654|    0.013926|
|         325|           0|   -2.316640|    0.300598|    0.269678|    3.101742|    0.506612|    0.013911|
|         326|           0|   -2.316799|    0.303518|    0.266481|    3.096110|    0.506560|    0.013900|
|         327|           0|   -2.316561|    0.305463|    0.262535|    3.091199|    0.506510|    0.013896|
|         328|           0|   -2.316230|    0.306396|    0.257884|    3.086880|    0.506452|    0.013898|
|         329|           0|   -2.316039|    0.306276|    0.252573|    3.083059|    0.506396|    0.013907|
|         330|           0|   -2.316128|    0.305018|    0.246701|    3.079694|    0.506335|    0.013920|
+-----------------------------------------------------------------------+
|        File Writing Summary       |              Filename             |
+-----------------------------------------------------------------------+
|SU2 restart                        |solution_flow.dat                  |
|Paraview                           |flow.vtu                           |
|Paraview surface                   |surface_flow.vtu                   |
+-----------------------------------------------------------------------+

Writing the forces breakdown file (forces_breakdown.dat).
+-------------------------------------------------------------------------------------------------------+
|  Inner_Iter|   Time_Iter|    rms[Rho]|   rms[RhoU]|   rms[RhoV]|   rms[RhoE]|          CL|          CD|
+-------------------------------------------------------------------------------------------------------+
|         331|           0|   -2.316667|    0.302537|    0.240328|    3.076659|    0.506279|    0.013942|
|         332|           0|   -2.317668|    0.298753|    0.233571|    3.074014|    0.506221|    0.013967|
|         333|           0|   -2.319198|    0.293611|    0.226518|    3.071720|    0.506169|    0.014000|
|         334|           0|   -2.321342|    0.287125|    0.219247|    3.069683|    0.506116|    0.014037|
|         335|           0|   -2.324100|    0.279292|    0.211885|    3.067873|    0.506072|    0.014079|
|         336|           0|   -2.327559|    0.270208|    0.204493|    3.066192|    0.506029|    0.014125|
|         337|           0|   -2.331806|    0.259957|    0.197177|    3.064446|    0.505997|    0.014176|
|         338|           0|   -2.336871|    0.248633|    0.190029|    3.062514|    0.505971|    0.014229|
|         339|           0|   -2.342734|    0.236335|    0.183129|    3.060334|    0.505954|    0.014286|
|         340|           0|   -2.349379|    0.223200|    0.176582|    3.057796|    0.505947|    0.014344|
+-----------------------------------------------------------------------+
|        File Writing Summary       |              Filename             |
+-----------------------------------------------------------------------+
|SU2 restart                        |solution_flow.dat                  |
|Paraview                           |flow.vtu                           |
|Paraview surface                   |surface_flow.vtu                   |
+-----------------------------------------------------------------------+

Writing the forces breakdown file (forces_breakdown.dat).
+-------------------------------------------------------------------------------------------------------+
|  Inner_Iter|   Time_Iter|    rms[Rho]|   rms[RhoU]|   rms[RhoV]|   rms[RhoE]|          CL|          CD|
+-------------------------------------------------------------------------------------------------------+
|         341|           0|   -2.356626|    0.209429|    0.170456|    3.055034|    0.505952|    0.014405|
|         342|           0|   -2.364428|    0.195246|    0.164780|    3.051954|    0.505964|    0.014465|
|         343|           0|   -2.372789|    0.180961|    0.159580|    3.048421|    0.505993|    0.014526|
|         344|           0|   -2.381433|    0.166887|    0.154918|    3.044604|    0.506032|    0.014586|
[...]
|         905|           0|   -3.967151|   -1.693396|   -1.866858|    1.497162|    0.510491|    0.014247|
|         906|           0|   -3.947898|   -1.677394|   -1.859651|    1.516844|    0.510489|    0.014245|
|         907|           0|   -3.959597|   -1.680721|   -1.865655|    1.505155|    0.510490|    0.014246|
|         908|           0|   -3.950144|   -1.684508|   -1.870420|    1.514683|    0.510489|    0.014245|
|         909|           0|   -3.952235|   -1.693154|   -1.874829|    1.513094|    0.510491|    0.014246|
|         910|           0|   -3.965077|   -1.702986|   -1.892615|    1.500587|    0.510490|    0.014244|
+-----------------------------------------------------------------------+
|        File Writing Summary       |              Filename             |
+-----------------------------------------------------------------------+
|SU2 restart                        |solution_flow.dat                  |
|Paraview                           |flow.vtu                           |
|Paraview surface                   |surface_flow.vtu                   |
+-----------------------------------------------------------------------+

Writing the forces breakdown file (forces_breakdown.dat).
+-------------------------------------------------------------------------------------------------------+
|  Inner_Iter|   Time_Iter|    rms[Rho]|   rms[RhoU]|   rms[RhoV]|   rms[RhoE]|          CL|          CD|
+-------------------------------------------------------------------------------------------------------+
|         911|           0|   -3.961098|   -1.697906|   -1.891479|    1.504737|    0.510491|    0.014245|
|         912|           0|   -3.953108|   -1.698764|   -1.890603|    1.513089|    0.510489|    0.014244|
|         913|           0|   -3.961463|   -1.712836|   -1.897924|    1.505167|    0.510491|    0.014244|
|         914|           0|   -3.948809|   -1.703895|   -1.901305|    1.518309|    0.510489|    0.014243|
|         915|           0|   -3.956247|   -1.706203|   -1.905457|    1.511261|    0.510490|    0.014244|
|         916|           0|   -3.978587|   -1.733199|   -1.927936|    1.489160|    0.510489|    0.014243|
|         917|           0|   -3.968223|   -1.735213|   -1.923250|    1.499711|    0.510490|    0.014243|
|         918|           0|   -3.944898|   -1.713032|   -1.911602|    1.523390|    0.510488|    0.014242|
|         919|           0|   -3.959663|   -1.718408|   -1.918436|    1.508978|    0.510490|    0.014242|
|         920|           0|   -3.956476|   -1.723618|   -1.923348|    1.512167|    0.510488|    0.014242|
+-----------------------------------------------------------------------+
|        File Writing Summary       |              Filename             |
+-----------------------------------------------------------------------+
|SU2 restart                        |solution_flow.dat                  |
|Paraview                           |flow.vtu                           |
|Paraview surface                   |surface_flow.vtu                   |
+-----------------------------------------------------------------------+

Writing the forces breakdown file (forces_breakdown.dat).
+-------------------------------------------------------------------------------------------------------+
|  Inner_Iter|   Time_Iter|    rms[Rho]|   rms[RhoU]|   rms[RhoV]|   rms[RhoE]|          CL|          CD|
+-------------------------------------------------------------------------------------------------------+
|         921|           0|   -3.958448|   -1.731605|   -1.925018|    1.510413|    0.510489|    0.014243|
|         922|           0|   -3.969812|   -1.741125|   -1.941807|    1.499108|    0.510486|    0.014242|
|         923|           0|   -3.969767|   -1.730610|   -1.934985|    1.499135|    0.510487|    0.014242|
|         924|           0|   -3.949830|   -1.717079|   -1.923698|    1.519013|    0.510487|    0.014242|
|         925|           0|   -3.960877|   -1.731757|   -1.926355|    1.507861|    0.510487|    0.014243|
|         926|           0|   -3.958377|   -1.724586|   -1.925442|    1.510132|    0.510485|    0.014242|
|         927|           0|   -3.968230|   -1.721700|   -1.927137|    1.500320|    0.510486|    0.014243|
|         928|           0|   -3.993641|   -1.746045|   -1.947063|    1.474615|    0.510484|    0.014242|
|         929|           0|   -3.975567|   -1.739012|   -1.936077|    1.492359|    0.510485|    0.014243|
|         930|           0|   -3.954228|   -1.711681|   -1.918777|    1.513605|    0.510483|    0.014242|
+-----------------------------------------------------------------------+
|        File Writing Summary       |              Filename             |
+-----------------------------------------------------------------------+
|SU2 restart                        |solution_flow.dat                  |
|Paraview                           |flow.vtu                           |
|Paraview surface                   |surface_flow.vtu                   |
+-----------------------------------------------------------------------+

Writing the forces breakdown file (forces_breakdown.dat).
+-------------------------------------------------------------------------------------------------------+
|  Inner_Iter|   Time_Iter|    rms[Rho]|   rms[RhoU]|   rms[RhoV]|   rms[RhoE]|          CL|          CD|
+-------------------------------------------------------------------------------------------------------+
|         931|           0|   -3.966101|   -1.712661|   -1.920410|    1.501606|    0.510485|    0.014243|
|         932|           0|   -3.961699|   -1.717464|   -1.920719|    1.505488|    0.510483|    0.014243|
|         933|           0|   -3.962448|   -1.719831|   -1.917588|    1.504840|    0.510485|    0.014244|
|         934|           0|   -3.971776|   -1.722697|   -1.931742|    1.495476|    0.510485|    0.014243|
|         935|           0|   -3.966723|   -1.711482|   -1.930392|    1.500218|    0.510485|    0.014244|
|         936|           0|   -3.962465|   -1.711817|   -1.922298|    1.504179|    0.510484|    0.014243|
|         937|           0|   -3.966653|   -1.720721|   -1.920827|    1.500135|    0.510485|    0.014244|
|         938|           0|   -3.947181|   -1.707368|   -1.917407|    1.519642|    0.510483|    0.014244|
|         939|           0|   -3.958185|   -1.707700|   -1.923758|    1.508841|    0.510484|    0.014245|
|         940|           0|   -3.980020|   -1.730628|   -1.947804|    1.486918|    0.510484|    0.014244|
+-----------------------------------------------------------------------+
|        File Writing Summary       |              Filename             |
+-----------------------------------------------------------------------+
|SU2 restart                        |solution_flow.dat                  |
|Paraview                           |flow.vtu                           |
|Paraview surface                   |surface_flow.vtu                   |
+-----------------------------------------------------------------------+

Writing the forces breakdown file (forces_breakdown.dat).
+-------------------------------------------------------------------------------------------------------+
|  Inner_Iter|   Time_Iter|    rms[Rho]|   rms[RhoU]|   rms[RhoV]|   rms[RhoE]|          CL|          CD|
+-------------------------------------------------------------------------------------------------------+
|         941|           0|   -3.962508|   -1.724012|   -1.939981|    1.504435|    0.510484|    0.014246|
|         942|           0|   -3.947094|   -1.709816|   -1.927544|    1.520071|    0.510483|    0.014245|
|         943|           0|   -3.964543|   -1.718129|   -1.938452|    1.502898|    0.510484|    0.014246|
|         944|           0|   -3.963371|   -1.727765|   -1.946927|    1.503944|    0.510484|    0.014246|
|         945|           0|   -3.956186|   -1.731310|   -1.948378|    1.511504|    0.510483|    0.014247|
|         946|           0|   -3.968631|   -1.736165|   -1.969989|    1.499377|    0.510483|    0.014247|
|         947|           0|   -3.966952|   -1.731824|   -1.967310|    1.501174|    0.510485|    0.014248|
|         948|           0|   -3.963024|   -1.734798|   -1.961709|    1.505268|    0.510483|    0.014247|
|         949|           0|   -3.968758|   -1.745474|   -1.967581|    1.499774|    0.510485|    0.014248|
|         950|           0|   -3.956773|   -1.735293|   -1.970137|    1.511820|    0.510483|    0.014247|
+-----------------------------------------------------------------------+
|        File Writing Summary       |              Filename             |
+-----------------------------------------------------------------------+
|SU2 restart                        |solution_flow.dat                  |
|Paraview                           |flow.vtu                           |
|Paraview surface                   |surface_flow.vtu                   |
+-----------------------------------------------------------------------+

Writing the forces breakdown file (forces_breakdown.dat).
+-------------------------------------------------------------------------------------------------------+
|  Inner_Iter|   Time_Iter|    rms[Rho]|   rms[RhoU]|   rms[RhoV]|   rms[RhoE]|          CL|          CD|
+-------------------------------------------------------------------------------------------------------+
|         951|           0|   -3.959999|   -1.729707|   -1.972049|    1.508889|    0.510485|    0.014248|
|         952|           0|   -3.989668|   -1.761950|   -2.001055|    1.479445|    0.510485|    0.014248|
|         953|           0|   -3.980395|   -1.764892|   -1.990857|    1.488710|    0.510486|    0.014248|
|         954|           0|   -3.951847|   -1.737546|   -1.969548|    1.517219|    0.510485|    0.014247|
|         955|           0|   -3.966646|   -1.739196|   -1.972762|    1.502691|    0.510486|    0.014248|
|         956|           0|   -3.951921|   -1.732613|   -1.970255|    1.517167|    0.510487|    0.014247|
|         957|           0|   -3.950789|   -1.740771|   -1.966610|    1.518432|    0.510489|    0.014248|
|         958|           0|   -3.979662|   -1.756486|   -1.997969|    1.489797|    0.510486|    0.014247|
|         959|           0|   -3.975302|   -1.745188|   -1.988520|    1.493872|    0.510490|    0.014248|
|         960|           0|   -3.957625|   -1.738084|   -1.966837|    1.511256|    0.510487|    0.014247|
+-----------------------------------------------------------------------+
|        File Writing Summary       |              Filename             |
+-----------------------------------------------------------------------+
|SU2 restart                        |solution_flow.dat                  |
|Paraview                           |flow.vtu                           |
|Paraview surface                   |surface_flow.vtu                   |
+-----------------------------------------------------------------------+

Writing the forces breakdown file (forces_breakdown.dat).
+-------------------------------------------------------------------------------------------------------+
|  Inner_Iter|   Time_Iter|    rms[Rho]|   rms[RhoU]|   rms[RhoV]|   rms[RhoE]|          CL|          CD|
+-------------------------------------------------------------------------------------------------------+
|         961|           0|   -3.968736|   -1.751126|   -1.965614|    1.500191|    0.510489|    0.014247|
|         962|           0|   -3.952972|   -1.732542|   -1.963635|    1.515874|    0.510488|    0.014246|
|         963|           0|   -3.953462|   -1.723598|   -1.964042|    1.515312|    0.510490|    0.014247|
|         964|           0|   -3.986803|   -1.757140|   -1.992030|    1.481799|    0.510489|    0.014246|
|         965|           0|   -3.975807|   -1.755204|   -1.978665|    1.492724|    0.510491|    0.014247|
|         966|           0|   -3.953601|   -1.729396|   -1.959545|    1.514831|    0.510489|    0.014246|
|         967|           0|   -3.966961|   -1.730515|   -1.965990|    1.501447|    0.510491|    0.014247|
|         968|           0|   -3.967674|   -1.738163|   -1.971750|    1.500376|    0.510490|    0.014245|
|         969|           0|   -3.965280|   -1.741074|   -1.971270|    1.502912|    0.510492|    0.014246|
|         970|           0|   -3.982277|   -1.749632|   -1.993780|    1.485871|    0.510490|    0.014245|
+-----------------------------------------------------------------------+
|        File Writing Summary       |              Filename             |
+-----------------------------------------------------------------------+
|SU2 restart                        |solution_flow.dat                  |
|Paraview                           |flow.vtu                           |
|Paraview surface                   |surface_flow.vtu                   |
+-----------------------------------------------------------------------+

Writing the forces breakdown file (forces_breakdown.dat).
+-------------------------------------------------------------------------------------------------------+
|  Inner_Iter|   Time_Iter|    rms[Rho]|   rms[RhoU]|   rms[RhoV]|   rms[RhoE]|          CL|          CD|
+-------------------------------------------------------------------------------------------------------+
|         971|           0|   -3.980750|   -1.743768|   -1.987654|    1.487205|    0.510491|    0.014246|
|         972|           0|   -3.966507|   -1.736818|   -1.975578|    1.501517|    0.510490|    0.014245|
|         973|           0|   -3.968520|   -1.742514|   -1.981025|    1.499640|    0.510491|    0.014246|
|         974|           0|   -3.959064|   -1.734023|   -1.982612|    1.508972|    0.510490|    0.014244|
|         975|           0|   -3.972888|   -1.737324|   -1.988048|    1.495444|    0.510491|    0.014245|
|         976|           0|   -4.000098|   -1.767994|   -2.017251|    1.468218|    0.510491|    0.014244|
|         977|           0|   -3.976372|   -1.761442|   -2.001721|    1.491925|    0.510492|    0.014245|
|         978|           0|   -3.954999|   -1.734776|   -1.981343|    1.513587|    0.510490|    0.014244|
|         979|           0|   -3.956408|   -1.727277|   -1.984453|    1.512389|    0.510493|    0.014244|
|         980|           0|   -3.957245|   -1.741641|   -1.991017|    1.511282|    0.510492|    0.014244|
+-----------------------------------------------------------------------+
|        File Writing Summary       |              Filename             |
+-----------------------------------------------------------------------+
|SU2 restart                        |solution_flow.dat                  |
|Paraview                           |flow.vtu                           |
|Paraview surface                   |surface_flow.vtu                   |
+-----------------------------------------------------------------------+

Writing the forces breakdown file (forces_breakdown.dat).
+-------------------------------------------------------------------------------------------------------+
|  Inner_Iter|   Time_Iter|    rms[Rho]|   rms[RhoU]|   rms[RhoV]|   rms[RhoE]|          CL|          CD|
+-------------------------------------------------------------------------------------------------------+
|         981|           0|   -3.967591|   -1.755867|   -2.002723|    1.501402|    0.510492|    0.014244|
|         982|           0|   -3.987293|   -1.768140|   -2.030862|    1.481919|    0.510492|    0.014243|
|         983|           0|   -3.979272|   -1.755327|   -2.013786|    1.489870|    0.510493|    0.014244|
|         984|           0|   -3.950984|   -1.736058|   -1.990906|    1.518072|    0.510491|    0.014243|
|         985|           0|   -3.962137|   -1.755144|   -1.996820|    1.507086|    0.510491|    0.014244|
|         986|           0|   -3.950696|   -1.743558|   -1.997784|    1.518590|    0.510490|    0.014243|
|         987|           0|   -3.953801|   -1.739585|   -2.000501|    1.515673|    0.510490|    0.014244|
|         988|           0|   -3.988368|   -1.773957|   -2.034384|    1.481223|    0.510489|    0.014243|
|         989|           0|   -3.975088|   -1.769506|   -2.020103|    1.494361|    0.510491|    0.014244|
|         990|           0|   -3.952148|   -1.743299|   -1.997199|    1.517162|    0.510488|    0.014243|
+-----------------------------------------------------------------------+
|        File Writing Summary       |              Filename             |
+-----------------------------------------------------------------------+
|SU2 restart                        |solution_flow.dat                  |
|Paraview                           |flow.vtu                           |
|Paraview surface                   |surface_flow.vtu                   |
+-----------------------------------------------------------------------+

Writing the forces breakdown file (forces_breakdown.dat).
+-------------------------------------------------------------------------------------------------------+
|  Inner_Iter|   Time_Iter|    rms[Rho]|   rms[RhoU]|   rms[RhoV]|   rms[RhoE]|          CL|          CD|
+-------------------------------------------------------------------------------------------------------+
|         991|           0|   -3.968068|   -1.747618|   -2.000018|    1.501441|    0.510490|    0.014244|
|         992|           0|   -3.964581|   -1.752050|   -2.002408|    1.504716|    0.510489|    0.014243|
|         993|           0|   -3.960295|   -1.752869|   -2.001597|    1.509081|    0.510489|    0.014245|
|         994|           0|   -3.982856|   -1.767317|   -2.026985|    1.486635|    0.510487|    0.014244|
|         995|           0|   -3.982089|   -1.758654|   -2.021783|    1.487172|    0.510489|    0.014244|
|         996|           0|   -3.963642|   -1.748293|   -2.004921|    1.505386|    0.510486|    0.014244|
|         997|           0|   -3.969176|   -1.756299|   -2.007468|    1.499952|    0.510488|    0.014245|
|         998|           0|   -3.957265|   -1.743177|   -2.005382|    1.511712|    0.510486|    0.014244|
|         999|           0|   -3.966800|   -1.744086|   -2.006120|    1.502224|    0.510487|    0.014245|

----------------------------- Solver Exit -------------------------------

Maximum number of iterations reached (ITER = 1000) before convergence.
+-----------------------------------------------------------------------+
|      Convergence Field     |     Value    |   Criterion  |  Converged |
+-----------------------------------------------------------------------+
|                  Cauchy[CD]|   6.38605e-05|       < 1e-10|          No|
+-----------------------------------------------------------------------+
-------------------------------------------------------------------------
+-----------------------------------------------------------------------+
|        File Writing Summary       |              Filename             |
+-----------------------------------------------------------------------+
|SU2 restart                        |solution_flow.dat                  |
|Paraview                           |flow.vtu                           |
|Paraview surface                   |surface_flow.vtu                   |
+-----------------------------------------------------------------------+

Writing the forces breakdown file (forces_breakdown.dat).

------------------------- Solver Postprocessing -------------------------
Deleted CNumerics container.
Deleted CIntegration container.
Deleted CSolver container.
Deleted CIteration container.
Deleted CInterpolator container.
Deleted CInterface container.
Deleted CGeometry container.
Deleted CFreeFormDefBox class.
Deleted CSurfaceMovement class.
Deleted CVolumetricMovement class.
Deleted CConfig container.
Deleted nInst container.
Deleted COutput class.
-------------------------------------------------------------------------

------------------------- Exit Success (SU2_CFD) ------------------------

