
-------------------------------------------------------------------------
|    ___ _   _ ___                                                      |
|   / __| | | |_  )   Release 7.0.3 "Blackbird"                       |
|   \__ \ |_| |/ /                                                    |
|   |___/\___//___|   Suite (Computational Fluid Dynamics Code)        |
|                                                                       |
-------------------------------------------------------------------------
| SU2 Project Website: https://su2code.github.io                        |
|                                                                       |
| The SU2 Project is maintained by the SU2 Foundation                   |
| (http://su2foundation.org)                                            |
-------------------------------------------------------------------------
| Copyright 2012-2020, SU2 Contributors                                 |
|                                                                       |
| SU2 is free software; you can redistribute it and/or                  |
| modify it under the terms of the GNU Lesser General Public            |
| License as published by the Free Software Foundation; either          |
| version 2.1 of the License, or (at your option) any later version.    |
|                                                                       |
| SU2 is distributed in the hope that it will be useful,                |
| but WITHOUT ANY WARRANTY; without even the implied warranty of        |
| MERCHANTABILITY or FITNESS FOR A PARTICULAR PURPOSE. See the GNU      |
| Lesser General Public License for more details.                       |
|                                                                       |
| You should have received a copy of the GNU Lesser General Public      |
| License along with SU2. If not, see <http://www.gnu.org/licenses/>.   |
-------------------------------------------------------------------------


Problem definition:

Compressible Euler equations.
Mach number: 0.3.
Angle of attack (AoA): 2 deg, and angle of sideslip (AoS): 0 deg.
Dimensional simulation.
The reference area is 55.7983 m^2.
The reference length is 1.8008 m.


Problem definition:

Inviscid flow: Computing density based on free-stream
temperature and pressure using the ideal gas law.
Force coefficients computed using free-stream values.
-- Input conditions:
Fluid Model: STANDARD_AIR 
Specific gas constant: 287.058 N.m/kg.K.
Specific gas constant (non-dim): 287.058
Specific Heat Ratio: 1.4000 
Free-stream static pressure: 101325 Pa.
Free-stream total pressure: 107853 Pa.
Free-stream temperature: 288.15 K.
Free-stream total temperature: 293.337 K.
Free-stream density: 1.22498 kg/m^3.
Free-stream velocity: (102.027, 0, 3.56286) m/s. Magnitude: 102.089 m/s.
Free-stream total energy per unit mass: 212000 m^2/s^2.
-- Reference values:
Reference specific gas constant: 1 N.m/kg.K.
Reference pressure: 1 Pa.
Reference temperature: 1 K.
Reference density: 1 kg/m^3.
Reference velocity: 1 m/s.
Reference energy per unit mass: 1 m^2/s^2.
-- Resulting non-dimensional state:
Mach number (non-dim): 0.3
Specific gas constant (non-dim): 287.058
Free-stream temperature (non-dim): 288.15
Free-stream pressure (non-dim): 101325
Free-stream density (non-dim): 1.22498
Free-stream velocity (non-dim): (102.027, 0, 3.56286). Magnitude: 102.089
Free-stream total energy per unit mass (non-dim): 212000


Forces breakdown:

Center of Pressure: X=0.203672Z+9.194473 m.

NOTE: Multiply forces by the non-dimensional factor: 356187.053093, and the reference factor: 1.000000
to obtain the dimensional force.

Total CL:       0.122085 | Pressure (   99%):    0.122085 | Friction (    0%):    0.000000 | Momentum (    0%):    0.000000
Total CD:       0.029337 | Pressure (   99%):    0.029337 | Friction (    0%):    0.000000 | Momentum (    0%):    0.000000
Total CSF:      0.099126 | Pressure (   99%):    0.099126 | Friction (    0%):    0.000000 | Momentum (    0%):    0.000000
Total CL/CD:    4.161438 | Pressure (  100%):    4.161438 | Friction (    0%):    0.000000 | Momentum (    0%):    0.000000
Total CMx:     -0.037186 | Pressure (  100%):   -0.037186 | Friction (    0%):    0.000000 | Momentum (    0%):    0.000000
Total CMy:     -0.006681 | Pressure (  100%):   -0.006681 | Friction (    0%):    0.000000 | Momentum (    0%):    0.000000
Total CMz:      0.110952 | Pressure (   99%):    0.110952 | Friction (    0%):    0.000000 | Momentum (    0%):    0.000000
Total CFx:      0.025059 | Pressure (   99%):    0.025059 | Friction (    0%):    0.000000 | Momentum (    0%):    0.000000
Total CFy:      0.099126 | Pressure (   99%):    0.099126 | Friction (    0%):    0.000000 | Momentum (    0%):    0.000000
Total CFz:      0.123034 | Pressure (   99%):    0.123034 | Friction (    0%):    0.000000 | Momentum (    0%):    0.000000


Surface name: VTP

Total CL    (    0%):    0.000235 | Pressure (   99%):    0.000235 | Friction (    0%):    0.000000 | Momentum (    0%):    0.000000
Total CD    (    1%):    0.000346 | Pressure (   99%):    0.000346 | Friction (    0%):    0.000000 | Momentum (    0%):    0.000000
Total CSF   (    0%):    0.000122 | Pressure (   99%):    0.000122 | Friction (    0%):    0.000000 | Momentum (    0%):    0.000000
Total CL/CD (   16%):    0.680102 | Pressure (  100%):    0.680102 | Friction (    0%):    0.000000 | Momentum (    0%):    0.000000
Total CMx   (    0%):   -0.000054 | Pressure (  100%):   -0.000054 | Friction (    0%):    0.000000 | Momentum (    0%):    0.000000
Total CMy   (    4%):   -0.000327 | Pressure (  100%):   -0.000327 | Friction (    0%):    0.000000 | Momentum (    0%):    0.000000
Total CMz   (    0%):    0.000408 | Pressure (   99%):    0.000408 | Friction (    0%):    0.000000 | Momentum (    0%):    0.000000
Total CFx   (    1%):    0.000337 | Pressure (   99%):    0.000337 | Friction (    0%):    0.000000 | Momentum (    0%):    0.000000
Total CFy   (    0%):    0.000122 | Pressure (   99%):    0.000122 | Friction (    0%):    0.000000 | Momentum (    0%):    0.000000
Total CFz   (    0%):    0.000247 | Pressure (   99%):    0.000247 | Friction (    0%):    0.000000 | Momentum (    0%):    0.000000

Surface name: Fuselage

Total CL    (    5%):    0.006326 | Pressure (   99%):    0.006326 | Friction (    0%):    0.000000 | Momentum (    0%):    0.000000
Total CD    (   27%):    0.008180 | Pressure (   99%):    0.008180 | Friction (    0%):    0.000000 | Momentum (    0%):    0.000000
Total CSF   (  101%):    0.100729 | Pressure (   99%):    0.100729 | Friction (    0%):    0.000000 | Momentum (    0%):    0.000000
Total CL/CD (   18%):    0.773388 | Pressure (   99%):    0.773388 | Friction (    0%):    0.000000 | Momentum (    0%):    0.000000
Total CMx   (   77%):   -0.028918 | Pressure (  100%):   -0.028918 | Friction (    0%):    0.000000 | Momentum (    0%):    0.000000
Total CMy   ( -314%):    0.021021 | Pressure (   99%):    0.021021 | Friction (    0%):    0.000000 | Momentum (    0%):    0.000000
Total CMz   (  109%):    0.121030 | Pressure (   99%):    0.121030 | Friction (    0%):    0.000000 | Momentum (    0%):    0.000000
Total CFx   (   31%):    0.007954 | Pressure (   99%):    0.007954 | Friction (    0%):    0.000000 | Momentum (    0%):    0.000000
Total CFy   (  101%):    0.100729 | Pressure (   99%):    0.100729 | Friction (    0%):    0.000000 | Momentum (    0%):    0.000000
Total CFz   (    5%):    0.006608 | Pressure (   99%):    0.006608 | Friction (    0%):    0.000000 | Momentum (    0%):    0.000000

Surface name: HTP

Total CL    (  -18%):   -0.022196 | Pressure (  100%):   -0.022196 | Friction (    0%):    0.000000 | Momentum (    0%):    0.000000
Total CD    (   -3%):   -0.000956 | Pressure (  100%):   -0.000956 | Friction (    0%):    0.000000 | Momentum (    0%):    0.000000
Total CSF   (    0%):    0.000004 | Pressure (   99%):    0.000004 | Friction (    0%):    0.000000 | Momentum (    0%):    0.000000
Total CL/CD (  557%):   23.215975 | Pressure (   99%):   23.215975 | Friction (    0%):    0.000000 | Momentum (    0%):    0.000000
Total CMx   (   -1%):    0.000520 | Pressure (   99%):    0.000520 | Friction (    0%):    0.000000 | Momentum (    0%):    0.000000
Total CMy   (-1120%):    0.074881 | Pressure (   99%):    0.074881 | Friction (    0%):    0.000000 | Momentum (    0%):    0.000000
Total CMz   (    0%):    0.000020 | Pressure (   99%):    0.000020 | Friction (    0%):    0.000000 | Momentum (    0%):    0.000000
Total CFx   (    0%):   -0.000181 | Pressure (  100%):   -0.000181 | Friction (    0%):    0.000000 | Momentum (    0%):    0.000000
Total CFy   (    0%):    0.000004 | Pressure (   99%):    0.000004 | Friction (    0%):    0.000000 | Momentum (    0%):    0.000000
Total CFz   (  -18%):   -0.022216 | Pressure (  100%):   -0.022216 | Friction (    0%):    0.000000 | Momentum (    0%):    0.000000

Surface name: Wing

Total CL    (  112%):    0.137720 | Pressure (   99%):    0.137720 | Friction (    0%):    0.000000 | Momentum (    0%):    0.000000
Total CD    (   74%):    0.021768 | Pressure (   99%):    0.021768 | Friction (    0%):    0.000000 | Momentum (    0%):    0.000000
Total CSF   (   -1%):   -0.001729 | Pressure (  100%):   -0.001729 | Friction (    0%):    0.000000 | Momentum (    0%):    0.000000
Total CL/CD (  152%):    6.326779 | Pressure (  100%):    6.326779 | Friction (    0%):    0.000000 | Momentum (    0%):    0.000000
Total CMx   (   23%):   -0.008735 | Pressure (  100%):   -0.008735 | Friction (    0%):    0.000000 | Momentum (    0%):    0.000000
Total CMy   ( 1530%):   -0.102256 | Pressure (  100%):   -0.102256 | Friction (    0%):    0.000000 | Momentum (    0%):    0.000000
Total CMz   (   -9%):   -0.010507 | Pressure (  100%):   -0.010507 | Friction (    0%):    0.000000 | Momentum (    0%):    0.000000
Total CFx   (   67%):    0.016948 | Pressure (   99%):    0.016948 | Friction (    0%):    0.000000 | Momentum (    0%):    0.000000
Total CFy   (   -1%):   -0.001729 | Pressure (  100%):   -0.001729 | Friction (    0%):    0.000000 | Momentum (    0%):    0.000000
Total CFz   (  112%):    0.138396 | Pressure (   99%):    0.138396 | Friction (    0%):    0.000000 | Momentum (    0%):    0.000000

