
-------------------------------------------------------------------------
|    ___ _   _ ___                                                      |
|   / __| | | |_  )   Release 7.0.3 "Blackbird"                       |
|   \__ \ |_| |/ /                                                    |
|   |___/\___//___|   Suite (Computational Fluid Dynamics Code)        |
|                                                                       |
-------------------------------------------------------------------------
| SU2 Project Website: https://su2code.github.io                        |
|                                                                       |
| The SU2 Project is maintained by the SU2 Foundation                   |
| (http://su2foundation.org)                                            |
-------------------------------------------------------------------------
| Copyright 2012-2020, SU2 Contributors                                 |
|                                                                       |
| SU2 is free software; you can redistribute it and/or                  |
| modify it under the terms of the GNU Lesser General Public            |
| License as published by the Free Software Foundation; either          |
| version 2.1 of the License, or (at your option) any later version.    |
|                                                                       |
| SU2 is distributed in the hope that it will be useful,                |
| but WITHOUT ANY WARRANTY; without even the implied warranty of        |
| MERCHANTABILITY or FITNESS FOR A PARTICULAR PURPOSE. See the GNU      |
| Lesser General Public License for more details.                       |
|                                                                       |
| You should have received a copy of the GNU Lesser General Public      |
| License along with SU2. If not, see <http://www.gnu.org/licenses/>.   |
-------------------------------------------------------------------------


Problem definition:

Compressible Euler equations.
Mach number: 0.35.
Angle of attack (AoA): 2 deg, and angle of sideslip (AoS): 0 deg.
Dimensional simulation.
The reference area is 55.7983 m^2.
The reference length is 1.8008 m.


Problem definition:

Inviscid flow: Computing density based on free-stream
temperature and pressure using the ideal gas law.
Force coefficients computed using free-stream values.
-- Input conditions:
Fluid Model: STANDARD_AIR 
Specific gas constant: 287.058 N.m/kg.K.
Specific gas constant (non-dim): 287.058
Specific Heat Ratio: 1.4000 
Free-stream static pressure: 101325 Pa.
Free-stream total pressure: 110283 Pa.
Free-stream temperature: 288.15 K.
Free-stream total temperature: 295.21 K.
Free-stream density: 1.22498 kg/m^3.
Free-stream velocity: (119.031, 0, 4.15667) m/s. Magnitude: 119.104 m/s.
Free-stream total energy per unit mass: 213882 m^2/s^2.
-- Reference values:
Reference specific gas constant: 1 N.m/kg.K.
Reference pressure: 1 Pa.
Reference temperature: 1 K.
Reference density: 1 kg/m^3.
Reference velocity: 1 m/s.
Reference energy per unit mass: 1 m^2/s^2.
-- Resulting non-dimensional state:
Mach number (non-dim): 0.35
Specific gas constant (non-dim): 287.058
Free-stream temperature (non-dim): 288.15
Free-stream pressure (non-dim): 101325
Free-stream density (non-dim): 1.22498
Free-stream velocity (non-dim): (119.031, 0, 4.15667). Magnitude: 119.104
Free-stream total energy per unit mass (non-dim): 213882


Forces breakdown:

Center of Pressure: X=-0.008672Z+9.878911 m.

NOTE: Multiply forces by the non-dimensional factor: 484810.155598, and the reference factor: 1.000000
to obtain the dimensional force.

Total CL:       0.512193 | Pressure (   99%):    0.512193 | Friction (    0%):    0.000000 | Momentum (    0%):    0.000000
Total CD:       0.013440 | Pressure (   99%):    0.013440 | Friction (    0%):    0.000000 | Momentum (    0%):    0.000000
Total CSF:      0.000500 | Pressure (   99%):    0.000500 | Friction (    0%):    0.000000 | Momentum (    0%):    0.000000
Total CL/CD:   38.108838 | Pressure (  100%):   38.108838 | Friction (    0%):    0.000000 | Momentum (    0%):    0.000000
Total CMx:     -0.005718 | Pressure (  100%):   -0.005718 | Friction (    0%):    0.000000 | Momentum (    0%):    0.000000
Total CMy:     -0.069845 | Pressure (  100%):   -0.069845 | Friction (    0%):    0.000000 | Momentum (    0%):    0.000000
Total CMz:      0.000671 | Pressure (   99%):    0.000671 | Friction (    0%):    0.000000 | Momentum (    0%):    0.000000
Total CFx:     -0.004443 | Pressure (  100%):   -0.004443 | Friction (    0%):    0.000000 | Momentum (    0%):    0.000000
Total CFy:      0.000500 | Pressure (   99%):    0.000500 | Friction (    0%):    0.000000 | Momentum (    0%):    0.000000
Total CFz:      0.512350 | Pressure (   99%):    0.512350 | Friction (    0%):    0.000000 | Momentum (    0%):    0.000000


Surface name: VTP

Total CL    (    0%):    0.000244 | Pressure (   99%):    0.000244 | Friction (    0%):    0.000000 | Momentum (    0%):    0.000000
Total CD    (    4%):    0.000584 | Pressure (   99%):    0.000584 | Friction (    0%):    0.000000 | Momentum (    0%):    0.000000
Total CSF   (  170%):    0.000853 | Pressure (   99%):    0.000853 | Friction (    0%):    0.000000 | Momentum (    0%):    0.000000
Total CL/CD (    1%):    0.417387 | Pressure (   99%):    0.417387 | Friction (    0%):    0.000000 | Momentum (    0%):    0.000000
Total CMx   (   15%):   -0.000912 | Pressure (  100%):   -0.000912 | Friction (    0%):    0.000000 | Momentum (    0%):    0.000000
Total CMy   (    0%):   -0.000074 | Pressure (  100%):   -0.000074 | Friction (    0%):    0.000000 | Momentum (    0%):    0.000000
Total CMz   (  386%):    0.002593 | Pressure (   99%):    0.002593 | Friction (    0%):    0.000000 | Momentum (    0%):    0.000000
Total CFx   (  -12%):    0.000575 | Pressure (   99%):    0.000575 | Friction (    0%):    0.000000 | Momentum (    0%):    0.000000
Total CFy   (  170%):    0.000853 | Pressure (   99%):    0.000853 | Friction (    0%):    0.000000 | Momentum (    0%):    0.000000
Total CFz   (    0%):    0.000264 | Pressure (   99%):    0.000264 | Friction (    0%):    0.000000 | Momentum (    0%):    0.000000

Surface name: Fuselage

Total CL    (    7%):    0.036343 | Pressure (   99%):    0.036343 | Friction (    0%):    0.000000 | Momentum (    0%):    0.000000
Total CD    (   21%):    0.002884 | Pressure (   99%):    0.002884 | Friction (    0%):    0.000000 | Momentum (    0%):    0.000000
Total CSF   (  114%):    0.000572 | Pressure (   99%):    0.000572 | Friction (    0%):    0.000000 | Momentum (    0%):    0.000000
Total CL/CD (   33%):   12.602851 | Pressure (  100%):   12.602851 | Friction (    0%):    0.000000 | Momentum (    0%):    0.000000
Total CMx   (    2%):   -0.000164 | Pressure (  100%):   -0.000164 | Friction (    0%):    0.000000 | Momentum (    0%):    0.000000
Total CMy   (  -12%):    0.008697 | Pressure (   99%):    0.008697 | Friction (    0%):    0.000000 | Momentum (    0%):    0.000000
Total CMz   (   52%):    0.000349 | Pressure (   99%):    0.000349 | Friction (    0%):    0.000000 | Momentum (    0%):    0.000000
Total CFx   (  -36%):    0.001614 | Pressure (   99%):    0.001614 | Friction (    0%):    0.000000 | Momentum (    0%):    0.000000
Total CFy   (  114%):    0.000572 | Pressure (   99%):    0.000572 | Friction (    0%):    0.000000 | Momentum (    0%):    0.000000
Total CFz   (    7%):    0.036422 | Pressure (   99%):    0.036422 | Friction (    0%):    0.000000 | Momentum (    0%):    0.000000

Surface name: HTP

Total CL    (   -8%):   -0.042664 | Pressure (  100%):   -0.042664 | Friction (    0%):    0.000000 | Momentum (    0%):    0.000000
Total CD    (   -5%):   -0.000748 | Pressure (  100%):   -0.000748 | Friction (    0%):    0.000000 | Momentum (    0%):    0.000000
Total CSF   ( -163%):   -0.000816 | Pressure (  100%):   -0.000816 | Friction (    0%):    0.000000 | Momentum (    0%):    0.000000
Total CL/CD (  149%):   57.053168 | Pressure (  100%):   57.053168 | Friction (    0%):    0.000000 | Momentum (    0%):    0.000000
Total CMx   (    2%):   -0.000168 | Pressure (  100%):   -0.000168 | Friction (    0%):    0.000000 | Momentum (    0%):    0.000000
Total CMy   ( -211%):    0.147505 | Pressure (   99%):    0.147505 | Friction (    0%):    0.000000 | Momentum (    0%):    0.000000
Total CMz   ( -420%):   -0.002821 | Pressure (  100%):   -0.002821 | Friction (    0%):    0.000000 | Momentum (    0%):    0.000000
Total CFx   (  -16%):    0.000742 | Pressure (   99%):    0.000742 | Friction (    0%):    0.000000 | Momentum (    0%):    0.000000
Total CFy   ( -163%):   -0.000816 | Pressure (  100%):   -0.000816 | Friction (    0%):    0.000000 | Momentum (    0%):    0.000000
Total CFz   (   -8%):   -0.042664 | Pressure (  100%):   -0.042664 | Friction (    0%):    0.000000 | Momentum (    0%):    0.000000

Surface name: Wing

Total CL    (  101%):    0.518269 | Pressure (   99%):    0.518269 | Friction (    0%):    0.000000 | Momentum (    0%):    0.000000
Total CD    (   79%):    0.010720 | Pressure (   99%):    0.010720 | Friction (    0%):    0.000000 | Momentum (    0%):    0.000000
Total CSF   (  -21%):   -0.000109 | Pressure (  100%):   -0.000109 | Friction (    0%):    0.000000 | Momentum (    0%):    0.000000
Total CL/CD (  126%):   48.345384 | Pressure (  100%):   48.345384 | Friction (    0%):    0.000000 | Momentum (    0%):    0.000000
Total CMx   (   78%):   -0.004474 | Pressure (  100%):   -0.004474 | Friction (    0%):    0.000000 | Momentum (    0%):    0.000000
Total CMy   (  323%):   -0.225974 | Pressure (  100%):   -0.225974 | Friction (    0%):    0.000000 | Momentum (    0%):    0.000000
Total CMz   (   81%):    0.000549 | Pressure (   99%):    0.000549 | Friction (    0%):    0.000000 | Momentum (    0%):    0.000000
Total CFx   (  165%):   -0.007374 | Pressure (  100%):   -0.007374 | Friction (    0%):    0.000000 | Momentum (    0%):    0.000000
Total CFy   (  -21%):   -0.000109 | Pressure (  100%):   -0.000109 | Friction (    0%):    0.000000 | Momentum (    0%):    0.000000
Total CFz   (  101%):    0.518328 | Pressure (   99%):    0.518328 | Friction (    0%):    0.000000 | Momentum (    0%):    0.000000

