
-------------------------------------------------------------------------
|    ___ _   _ ___                                                      |
|   / __| | | |_  )   Release 7.0.3 "Blackbird"                         |
|   \__ \ |_| |/ /                                                      |
|   |___/\___//___|   Suite (Computational Fluid Dynamics Code)         |
|                                                                       |
-------------------------------------------------------------------------
| SU2 Project Website: https://su2code.github.io                        |
|                                                                       |
| The SU2 Project is maintained by the SU2 Foundation                   |
| (http://su2foundation.org)                                            |
-------------------------------------------------------------------------
| Copyright 2012-2020, SU2 Contributors                                 |
|                                                                       |
| SU2 is free software; you can redistribute it and/or                  |
| modify it under the terms of the GNU Lesser General Public            |
| License as published by the Free Software Foundation; either          |
| version 2.1 of the License, or (at your option) any later version.    |
|                                                                       |
| SU2 is distributed in the hope that it will be useful,                |
| but WITHOUT ANY WARRANTY; without even the implied warranty of        |
| MERCHANTABILITY or FITNESS FOR A PARTICULAR PURPOSE. See the GNU      |
| Lesser General Public License for more details.                       |
|                                                                       |
| You should have received a copy of the GNU Lesser General Public      |
| License along with SU2. If not, see <http://www.gnu.org/licenses/>.   |
-------------------------------------------------------------------------

Parsing config file for zone 0

----------------- Physical Case Definition ( Zone 0 ) -------------------
Compressible Euler equations.
Mach number: 0.35.
Angle of attack (AoA): 2 deg, and angle of sideslip (AoS): 0 deg.
No restart solution, use the values at infinity (freestream).
Dimensional simulation.
The reference area is 55.7983 m^2.
The semi-span will be computed using the max y(3D) value.
The reference length is 1.8008 m.
Surface(s) where the force coefficients are evaluated and 
their reference origin for moment computation: 
   - VTP (9.6115, 0, 2.5277).
   - Fuselage (9.6115, 0, 2.5277).
   - HTP (9.6115, 0, 2.5277).
   - Wing (9.6115, 0, 2.5277) m.
Surface(s) where the objective function is evaluated: airfoil.
Surface(s) plotted in the output file: VTP, Fuselage, HTP, Wing.
Surface(s) to be analyzed in detail: airfoil.
Surface(s) affected by the design variables: VTP, Fuselage, HTP, Wing.
Input mesh file name: deformed.su2

--------------- Space Numerical Integration ( Zone 0 ) ------------------
Roe (with entropy fix = 0) solver for the flow inviscid terms.
Roe with DDES's FD low-dissipation function.
Second order integration in space, with slope limiter.
Venkatakrishnan slope-limiting method, with constant: 0.05. 
The reference element size is: 1. 
Gradient for upwind reconstruction: Green-Gauss.
Gradient for viscous and source terms: Green-Gauss.

--------------- Time Numerical Integration  ( Zone 0 ) ------------------
Local time stepping (steady state simulation).
Euler implicit method for the flow equations.
FGMRES is used for solving the linear system.
Using a ILU(0) preconditioning.
Convergence criteria of the linear solver: 1e-06.
Max number of linear iterations: 5.
V Multigrid Cycle, with 3 multigrid levels.
Damping factor for the residual restriction: 0.75.
Damping factor for the correction prolongation: 0.75.
No CFL adaptation.
+-------------------------------------------+
|  MG Level| Presmooth|PostSmooth|CorrectSmo|
+-------------------------------------------+
|         0|         1|         0|         0|
|         1|         2|         0|         0|
|         2|         3|         0|         0|
|         3|         3|         0|         0|
+-------------------------------------------+
Courant-Friedrichs-Lewy number:        1

------------------ Convergence Criteria  ( Zone 0 ) ---------------------
Maximum number of solver subiterations: 500.
Begin convergence monitoring at iteration 10.
Residual minimum value: 1e-8.
Cauchy series min. value: 1e-10.
Number of Cauchy elements: 100.
Begin windowed time average at iteration 15.

-------------------- Output Information ( Zone 0 ) ----------------------
Writing solution files every 10 iterations.
Writing the convergence history file every 1 inner iterations.
Writing the screen convergence history every 1 inner iterations.
The tabular file format is Tecplot (.dat).
Convergence history file name: history.
Forces breakdown file name: forces_breakdown.dat.
Surface file name: surface_flow.
Volume file name: flow.
Restart file name: solution_flow.dat.

------------- Config File Boundary Information ( Zone 0 ) ---------------
+-----------------------------------------------------------------------+
|                        Marker Type|                        Marker Name|
+-----------------------------------------------------------------------+
|                         Euler wall|                                VTP|
|                                   |                           Fuselage|
|                                   |                                HTP|
|                                   |                               Wing|
+-----------------------------------------------------------------------+
|                          Far-field|                           Farfield|
+-----------------------------------------------------------------------+
|                     Symmetry plane|                                  0|
+-----------------------------------------------------------------------+
|           Deformable mesh boundary|                            airfoil|
+-----------------------------------------------------------------------+

-------------------- Output Preprocessing ( Zone 0 ) --------------------
Screen output fields: INNER_ITER, TIME_ITER, RMS_DENSITY, RMS_MOMENTUM-X, RMS_MOMENTUM-Y, RMS_ENERGY, LIFT, DRAG
  Info: Ignoring the following history output groups:
  TIME_ITER
History output group(s): ITER, RMS_RES, AERO_COEFF
Warning: No (valid) fields chosen for convergence monitoring. Convergence monitoring inactive.
Warning: No (valid) fields chosen for time convergence monitoring. Time convergence monitoring inactive.
Volume output fields: COORDINATES, SOLUTION, PRIMITIVE

------------------- Geometry Preprocessing ( Zone 0 ) -------------------
Three dimensional problem.
134403 grid points before partitioning.
750945 volume elements before partitioning.
5 surface markers.
2298 boundary elements in index 0 (Marker = VTP).
6838 boundary elements in index 1 (Marker = Fuselage).
9046 boundary elements in index 2 (Marker = HTP).
42568 boundary elements in index 3 (Marker = Wing).
1280 boundary elements in index 4 (Marker = Farfield).
Executing the partitioning functions.
Building the graph adjacency structure.
Calling ParMETIS... graph partitioning complete (14371 edge cuts).
Distributing ParMETIS coloring.
Rebalancing vertices.
Rebalancing volume element connectivity.
Rebalancing markers and surface elements.
142496 vertices including ghost points. 
772621 interior elements including halo cells. 
772621 tetrahedra.
Establishing MPI communication patterns.
Setting point connectivity.
Renumbering points (Reverse Cuthill McKee Ordering).
Recomputing point connectivity.
Setting element connectivity.
Checking the numerical grid orientation.
Identifying edges and vertices.
Computing centers of gravity.
Setting the control volume structure.
Volume of the computational grid: 5.51661e+06.
Searching for the closest normal neighbors to the surfaces.
Storing a mapping from global to local point index.
Compute the surface curvature.
Max K: 878.235. Mean K: 40.5358. Standard deviation K: 80.195.
Checking for periodicity.
Computing mesh quality statistics for the dual control volumes.
+--------------------------------------------------------------+
|           Mesh Quality Metric|        Minimum|        Maximum|
+--------------------------------------------------------------+
|    Orthogonality Angle (deg.)|        33.0501|        84.6986|
|     CV Face Area Aspect Ratio|        1.24307|        323.831|
|           CV Sub-Volume Ratio|        1.03474|         2891.2|
+--------------------------------------------------------------+
Setting the multigrid structure.
+-------------------------------------------+
|  MG Level|       CVs|Aggl. Rate|       CFL|
+-------------------------------------------+
|         0|    142496|    1/1.00|         1|
|         1|     25276|    1/5.64|  0.842804|
|         2|      5944|    1/4.25|  0.780323|
Finding max control volume width.
Communicating number of neighbors.
Semi-span length = 16.1045 m.
Wetted area = 186.582 m^2.
Area projection in the x-plane = 11.9796 m^2, y-plane = 24.8212 m^2, z-plane = 74.9911 m^2.
Max. coordinate in the x-direction = 16.6451 m, y-direction = 16.1045 m, z-direction = 5.48666 m.
Min. coordinate in the x-direction = 2.49776 m, y-direction = -16.1047 m, z-direction = 2.23868 m.
Checking if Euler & Symmetry markers are straight/plane:
Boundary marker VTP is NOT a single plane.
Boundary marker Fuselage is NOT a single plane.
Boundary marker HTP is NOT a single plane.
Boundary marker Wing is NOT a single plane.
Boundary marker 0 is a single plane.

-------------------- Solver Preprocessing ( Zone 0 ) --------------------
Inviscid flow: Computing density based on free-stream
temperature and pressure using the ideal gas law.
Force coefficients computed using free-stream values.

-- Models:
+------------------------------------------------------------------------------+
|          Viscosity Model|        Conductivity Model|              Fluid Model|
+------------------------------------------------------------------------------+
|                        -|                         -|             STANDARD_AIR|
+------------------------------------------------------------------------------+
-- Fluid properties:
+------------------------------------------------------------------------------+
|                  Name|    Dim. value|    Ref. value|      Unit|Non-dim. value|
+------------------------------------------------------------------------------+
|          Gas Constant|       287.058|             1|  N.m/kg.K|       287.058|
|      Spec. Heat Ratio|             -|             -|         -|           1.4|
+------------------------------------------------------------------------------+
-- Initial and free-stream conditions:
+------------------------------------------------------------------------------+
|                  Name|    Dim. value|    Ref. value|      Unit|Non-dim. value|
+------------------------------------------------------------------------------+
|       Static Pressure|        101325|             1|        Pa|        101325|
|               Density|       1.22498|             1|    kg/m^3|       1.22498|
|           Temperature|        288.15|             1|         K|        288.15|
|          Total Energy|        213882|             1|   m^2/s^2|        213882|
|            Velocity-X|       119.031|             1|       m/s|       119.031|
|            Velocity-Y|             0|             1|       m/s|             0|
|            Velocity-Z|       4.15667|             1|       m/s|       4.15667|
|    Velocity Magnitude|       119.104|             1|       m/s|       119.104|
+------------------------------------------------------------------------------+
|           Mach Number|             -|             -|         -|          0.35|
+------------------------------------------------------------------------------+
Initialize Jacobian structure (Euler). MG level: 0.
Initialize Jacobian structure (Euler). MG level: 1.
Initialize Jacobian structure (Euler). MG level: 2.

------------------- Numerics Preprocessing ( Zone 0 ) -------------------

----------------- Integration Preprocessing ( Zone 0 ) ------------------

------------------- Iteration Preprocessing ( Zone 0 ) ------------------
Euler/Navier-Stokes/RANS fluid iteration.

------------------------------ Begin Solver -----------------------------

Simulation Run using the Single-zone Driver
+-------------------------------------------------------------------------------------------------------+
|  Inner_Iter|   Time_Iter|    rms[Rho]|   rms[RhoU]|   rms[RhoV]|   rms[RhoE]|          CL|          CD|
+-------------------------------------------------------------------------------------------------------+
|           0|           0|   -1.066908|    1.112483|    1.111200|    4.405260|    0.066361|    0.249215|
|           1|           0|   -1.177101|    1.033584|    1.023200|    4.296849|    0.117416|    0.426516|
|           2|           0|   -1.213618|    1.068957|    1.024789|    4.261972|    0.154849|    0.541570|
|           3|           0|   -1.203511|    1.138494|    1.070668|    4.272450|    0.182263|    0.604958|
|           4|           0|   -1.181717|    1.206173|    1.122130|    4.294039|    0.203195|    0.626844|
|           5|           0|   -1.162594|    1.266537|    1.167425|    4.312885|    0.220639|    0.616880|
|           6|           0|   -1.148050|    1.320155|    1.205356|    4.327054|    0.236808|    0.583765|
|           7|           0|   -1.136142|    1.368057|    1.237322|    4.338321|    0.253091|    0.535027|
|           8|           0|   -1.124326|    1.410910|    1.265210|    4.349071|    0.270150|    0.476919|
|           9|           0|   -1.111044|    1.449206|    1.290550|    4.360824|    0.288058|    0.414499|
|          10|           0|   -1.095894|    1.483469|    1.314501|    4.374027|    0.306567|    0.351705|
+-----------------------------------------------------------------------+
|        File Writing Summary       |              Filename             |
+-----------------------------------------------------------------------+
|SU2 restart                        |solution_flow.dat                  |
|Paraview                           |flow.vtu                           |
|Paraview surface                   |surface_flow.vtu                   |
+-----------------------------------------------------------------------+

Writing the forces breakdown file (forces_breakdown.dat).
+-------------------------------------------------------------------------------------------------------+
|  Inner_Iter|   Time_Iter|    rms[Rho]|   rms[RhoU]|   rms[RhoV]|   rms[RhoE]|          CL|          CD|
+-------------------------------------------------------------------------------------------------------+
|          11|           0|   -1.079371|    1.514159|    1.337972|    4.388305|    0.325289|    0.291390|
|          12|           0|   -1.062576|    1.541513|    1.361306|    4.402627|    0.343747|    0.235409|
|          13|           0|   -1.046442|    1.565757|    1.384513|    4.416120|    0.361496|    0.184858|
|          14|           0|   -1.031859|    1.586852|    1.407071|    4.427860|    0.378095|    0.140226|
|          15|           0|   -1.019178|    1.604794|    1.428401|    4.437535|    0.393167|    0.101534|
|          16|           0|   -1.008350|    1.619234|    1.447751|    4.445219|    0.406386|    0.068479|
|          17|           0|   -0.998682|    1.630000|    1.464256|    4.451764|    0.417502|    0.040567|
|          18|           0|   -0.989351|    1.636871|    1.477294|    4.458238|    0.426315|    0.017215|
|          19|           0|   -0.979277|    1.639650|    1.486493|    4.466099|    0.432662|   -0.002174|
|          20|           0|   -0.967292|    1.638705|    1.491758|    4.477101|    0.436488|   -0.018162|
+-----------------------------------------------------------------------+
|        File Writing Summary       |              Filename             |
+-----------------------------------------------------------------------+
|SU2 restart                        |solution_flow.dat                  |
|Paraview                           |flow.vtu                           |
|Paraview surface                   |surface_flow.vtu                   |
+-----------------------------------------------------------------------+

Writing the forces breakdown file (forces_breakdown.dat).
+-------------------------------------------------------------------------------------------------------+
|  Inner_Iter|   Time_Iter|    rms[Rho]|   rms[RhoU]|   rms[RhoV]|   rms[RhoE]|          CL|          CD|
+-------------------------------------------------------------------------------------------------------+
|          21|           0|   -0.952528|    1.634715|    1.493658|    4.492522|    0.437786|   -0.031260|
|          22|           0|   -0.935094|    1.629508|    1.493545|    4.512347|    0.436580|   -0.041919|
|          23|           0|   -0.915968|    1.624303|    1.493304|    4.535391|    0.432969|   -0.050518|
|          24|           0|   -0.896824|    1.621652|    1.495331|    4.559282|    0.427097|   -0.057355|
|          25|           0|   -0.879731|    1.623263|    1.502738|    4.581228|    0.419193|   -0.062652|
|          26|           0|   -0.866583|    1.630571|    1.517119|    4.598889|    0.409488|   -0.066565|
|          27|           0|   -0.858846|    1.642662|    1.537998|    4.610440|    0.398275|   -0.069203|
|          28|           0|   -0.857633|    1.657206|    1.563281|    4.614458|    0.385856|   -0.070644|
|          29|           0|   -0.863023|    1.671606|    1.589715|    4.610574|    0.372528|   -0.070944|
|          30|           0|   -0.873724|    1.683618|    1.614195|    4.599660|    0.358608|   -0.070145|
+-----------------------------------------------------------------------+
|        File Writing Summary       |              Filename             |
+-----------------------------------------------------------------------+
|SU2 restart                        |solution_flow.dat                  |
|Paraview                           |flow.vtu                           |
|Paraview surface                   |surface_flow.vtu                   |
+-----------------------------------------------------------------------+

Writing the forces breakdown file (forces_breakdown.dat).
+-------------------------------------------------------------------------------------------------------+
|  Inner_Iter|   Time_Iter|    rms[Rho]|   rms[RhoU]|   rms[RhoV]|   rms[RhoE]|          CL|          CD|
+-------------------------------------------------------------------------------------------------------+
|          31|           0|   -0.888308|    1.691042|    1.633841|    4.582608|    0.344399|   -0.068290|
|          32|           0|   -0.901310|    1.692564|    1.646328|    4.564627|    0.330218|   -0.065421|
|          33|           0|   -0.906125|    1.687796|    1.649930|    4.552893|    0.316347|   -0.061582|
|          34|           0|   -0.897348|    1.677839|    1.644018|    4.555229|    0.303046|   -0.056839|
|          35|           0|   -0.873529|    1.665246|    1.628220|    4.575906|    0.290530|   -0.051268|
|          36|           0|   -0.838761|    1.653355|    1.603374|    4.611661|    0.279011|   -0.044960|
|          37|           0|   -0.800193|    1.648157|    1.572104|    4.653961|    0.268666|   -0.038015|
|          38|           0|   -0.763612|    1.654856|    1.540610|    4.695627|    0.259648|   -0.030546|
|          39|           0|   -0.732495|    1.676293|    1.519864|    4.732057|    0.252068|   -0.022679|
|          40|           0|   -0.708959|    1.710158|    1.525013|    4.760606|    0.246010|   -0.014549|
+-----------------------------------------------------------------------+
|        File Writing Summary       |              Filename             |
+-----------------------------------------------------------------------+
|SU2 restart                        |solution_flow.dat                  |
|Paraview                           |flow.vtu                           |
|Paraview surface                   |surface_flow.vtu                   |
+-----------------------------------------------------------------------+

Writing the forces breakdown file (forces_breakdown.dat).
+-------------------------------------------------------------------------------------------------------+
|  Inner_Iter|   Time_Iter|    rms[Rho]|   rms[RhoU]|   rms[RhoV]|   rms[RhoE]|          CL|          CD|
+-------------------------------------------------------------------------------------------------------+
|          41|           0|   -0.694760|    1.749617|    1.558677|    4.779021|    0.241526|   -0.006292|
|          42|           0|   -0.690534|    1.788534|    1.610813|    4.786473|    0.238648|    0.001958|
|          43|           0|   -0.695892|    1.823820|    1.668370|    4.783415|    0.237391|    0.010069|
|          44|           0|   -0.710528|    1.852206|    1.722434|    4.769780|    0.237745|    0.017913|
|          45|           0|   -0.732983|    1.873325|    1.768905|    4.746287|    0.239666|    0.025369|
|          46|           0|   -0.760965|    1.886232|    1.805900|    4.713995|    0.243095|    0.032330|
|          47|           0|   -0.789932|    1.890737|    1.832658|    4.676072|    0.247949|    0.038701|
|          48|           0|   -0.812618|    1.886995|    1.849312|    4.639233|    0.254134|    0.044401|
|          49|           0|   -0.819928|    1.875978|    1.856232|    4.615576|    0.261539|    0.049370|
|          50|           0|   -0.807723|    1.857003|    1.853990|    4.615295|    0.270031|    0.053561|
+-----------------------------------------------------------------------+
|        File Writing Summary       |              Filename             |
+-----------------------------------------------------------------------+
|SU2 restart                        |solution_flow.dat                  |
|Paraview                           |flow.vtu                           |
|Paraview surface                   |surface_flow.vtu                   |
+-----------------------------------------------------------------------+

Writing the forces breakdown file (forces_breakdown.dat).
+-------------------------------------------------------------------------------------------------------+
|  Inner_Iter|   Time_Iter|    rms[Rho]|   rms[RhoU]|   rms[RhoV]|   rms[RhoE]|          CL|          CD|
+-------------------------------------------------------------------------------------------------------+
|          51|           0|   -0.779001|    1.830654|    1.842150|    4.640091|    0.279488|    0.056945|
|          52|           0|   -0.741380|    1.797712|    1.820839|    4.681291|    0.289778|    0.059512|
|          53|           0|   -0.702909|    1.760159|    1.792197|    4.726920|    0.300775|    0.061270|
|          54|           0|   -0.668667|    1.723195|    1.756088|    4.769040|    0.312327|    0.062237|
|          55|           0|   -0.640579|    1.692520|    1.717144|    4.804544|    0.324305|    0.062451|
|          56|           0|   -0.619637|    1.675014|    1.682265|    4.832137|    0.336573|    0.061958|
|          57|           0|   -0.606502|    1.672955|    1.658563|    4.850749|    0.348993|    0.060815|
|          58|           0|   -0.600412|    1.685416|    1.652552|    4.861327|    0.361421|    0.059086|
|          59|           0|   -0.600605|    1.707981|    1.666579|    4.864429|    0.373712|    0.056843|
|          60|           0|   -0.605546|    1.735102|    1.696282|    4.861557|    0.385731|    0.054162|
+-----------------------------------------------------------------------+
|        File Writing Summary       |              Filename             |
+-----------------------------------------------------------------------+
|SU2 restart                        |solution_flow.dat                  |
|Paraview                           |flow.vtu                           |
|Paraview surface                   |surface_flow.vtu                   |
+-----------------------------------------------------------------------+

Writing the forces breakdown file (forces_breakdown.dat).
+-------------------------------------------------------------------------------------------------------+
|  Inner_Iter|   Time_Iter|    rms[Rho]|   rms[RhoU]|   rms[RhoV]|   rms[RhoE]|          CL|          CD|
+-------------------------------------------------------------------------------------------------------+
|          61|           0|   -0.615436|    1.761666|    1.733833|    4.852162|    0.397350|    0.051123|
|          62|           0|   -0.628816|    1.786563|    1.772449|    4.837506|    0.408449|    0.047805|
|          63|           0|   -0.644045|    1.807783|    1.807730|    4.819131|    0.418902|    0.044287|
|          64|           0|   -0.659539|    1.824660|    1.837455|    4.798331|    0.428601|    0.040644|
|          65|           0|   -0.673314|    1.837495|    1.861082|    4.777034|    0.437444|    0.036950|
|          66|           0|   -0.683751|    1.846199|    1.878726|    4.757203|    0.445352|    0.033275|
|          67|           0|   -0.689394|    1.851643|    1.890459|    4.741364|    0.452245|    0.029680|
|          68|           0|   -0.690370|    1.854478|    1.896866|    4.730665|    0.458067|    0.026223|
|          69|           0|   -0.686972|    1.852717|    1.897976|    4.725917|    0.462767|    0.022951|
|          70|           0|   -0.680101|    1.847405|    1.894306|    4.727252|    0.466324|    0.019907|
+-----------------------------------------------------------------------+
|        File Writing Summary       |              Filename             |
+-----------------------------------------------------------------------+
|SU2 restart                        |solution_flow.dat                  |
|Paraview                           |flow.vtu                           |
|Paraview surface                   |surface_flow.vtu                   |
+-----------------------------------------------------------------------+

Writing the forces breakdown file (forces_breakdown.dat).
+-------------------------------------------------------------------------------------------------------+
|  Inner_Iter|   Time_Iter|    rms[Rho]|   rms[RhoU]|   rms[RhoV]|   rms[RhoE]|          CL|          CD|
+-------------------------------------------------------------------------------------------------------+
|          71|           0|   -0.671031|    1.838534|    1.886541|    4.733645|    0.468732|    0.017124|
|          72|           0|   -0.661219|    1.827591|    1.874916|    4.743393|    0.470006|    0.014628|
|          73|           0|   -0.651712|    1.813555|    1.859893|    4.754816|    0.470178|    0.012440|
|          74|           0|   -0.643255|    1.797323|    1.842456|    4.766569|    0.469289|    0.010570|
|          75|           0|   -0.636915|    1.780135|    1.823105|    4.777016|    0.467407|    0.009023|
|          76|           0|   -0.633122|    1.763208|    1.802938|    4.785257|    0.464594|    0.007794|
|          77|           0|   -0.631868|    1.747079|    1.782250|    4.791191|    0.460943|    0.006881|
|          78|           0|   -0.633345|    1.732589|    1.763078|    4.794318|    0.456553|    0.006267|
|          79|           0|   -0.637609|    1.721038|    1.745668|    4.794438|    0.451541|    0.005937|
|          80|           0|   -0.644454|    1.711866|    1.731481|    4.791642|    0.446027|    0.005869|
+-----------------------------------------------------------------------+
|        File Writing Summary       |              Filename             |
+-----------------------------------------------------------------------+
|SU2 restart                        |solution_flow.dat                  |
|Paraview                           |flow.vtu                           |
|Paraview surface                   |surface_flow.vtu                   |
+-----------------------------------------------------------------------+

Writing the forces breakdown file (forces_breakdown.dat).
+-------------------------------------------------------------------------------------------------------+
|  Inner_Iter|   Time_Iter|    rms[Rho]|   rms[RhoU]|   rms[RhoV]|   rms[RhoE]|          CL|          CD|
+-------------------------------------------------------------------------------------------------------+
|          81|           0|   -0.653776|    1.705647|    1.721841|    4.785949|    0.440146|    0.006041|
|          82|           0|   -0.665436|    1.703018|    1.716491|    4.777462|    0.434032|    0.006426|
|          83|           0|   -0.679211|    1.703193|    1.715259|    4.766162|    0.427823|    0.006998|
|          84|           0|   -0.694214|    1.704838|    1.717541|    4.752855|    0.421658|    0.007729|
|          85|           0|   -0.710080|    1.707874|    1.722211|    4.737832|    0.415663|    0.008590|
|          86|           0|   -0.726176|    1.712120|    1.728137|    4.721471|    0.409961|    0.009554|
|          87|           0|   -0.741407|    1.715722|    1.734385|    4.704785|    0.404666|    0.010594|
|          88|           0|   -0.754734|    1.718628|    1.740006|    4.688970|    0.399888|    0.011682|
|          89|           0|   -0.765800|    1.720041|    1.744189|    4.674230|    0.395714|    0.012795|
|          90|           0|   -0.774543|    1.720197|    1.746871|    4.660877|    0.392218|    0.013906|
+-----------------------------------------------------------------------+
|        File Writing Summary       |              Filename             |
+-----------------------------------------------------------------------+
|SU2 restart                        |solution_flow.dat                  |
|Paraview                           |flow.vtu                           |
|Paraview surface                   |surface_flow.vtu                   |
+-----------------------------------------------------------------------+

Writing the forces breakdown file (forces_breakdown.dat).
+-------------------------------------------------------------------------------------------------------+
|  Inner_Iter|   Time_Iter|    rms[Rho]|   rms[RhoU]|   rms[RhoV]|   rms[RhoE]|          CL|          CD|
+-------------------------------------------------------------------------------------------------------+
|          91|           0|   -0.780385|    1.719197|    1.747697|    4.649956|    0.389476|    0.014998|
|          92|           0|   -0.783463|    1.716587|    1.746401|    4.641749|    0.387535|    0.016050|
|          93|           0|   -0.784163|    1.712174|    1.742998|    4.636322|    0.386439|    0.017048|
|          94|           0|   -0.783178|    1.706987|    1.737862|    4.633359|    0.386196|    0.017977|
|          95|           0|   -0.782091|    1.701109|    1.731485|    4.631229|    0.386810|    0.018829|
|          96|           0|   -0.780893|    1.694028|    1.723200|    4.630094|    0.388267|    0.019594|
|          97|           0|   -0.780892|    1.686936|    1.714013|    4.628613|    0.390540|    0.020268|
|          98|           0|   -0.782880|    1.679614|    1.704775|    4.625753|    0.393577|    0.020846|
|          99|           0|   -0.786723|    1.671843|    1.694913|    4.621512|    0.397331|    0.021330|
|         100|           0|   -0.791930|    1.664358|    1.684997|    4.616410|    0.401723|    0.021718|
+-----------------------------------------------------------------------+
|        File Writing Summary       |              Filename             |
+-----------------------------------------------------------------------+
|SU2 restart                        |solution_flow.dat                  |
|Paraview                           |flow.vtu                           |
|Paraview surface                   |surface_flow.vtu                   |
+-----------------------------------------------------------------------+

Writing the forces breakdown file (forces_breakdown.dat).
+-------------------------------------------------------------------------------------------------------+
|  Inner_Iter|   Time_Iter|    rms[Rho]|   rms[RhoU]|   rms[RhoV]|   rms[RhoE]|          CL|          CD|
+-------------------------------------------------------------------------------------------------------+
|         101|           0|   -0.799253|    1.657166|    1.675293|    4.609569|    0.406681|    0.022015|
|         102|           0|   -0.808929|    1.649485|    1.665949|    4.600655|    0.412114|    0.022220|
|         103|           0|   -0.820710|    1.642306|    1.657114|    4.590023|    0.417938|    0.022340|
|         104|           0|   -0.834948|    1.635184|    1.648466|    4.577285|    0.424046|    0.022379|
|         105|           0|   -0.850593|    1.627451|    1.640167|    4.563670|    0.430347|    0.022343|
|         106|           0|   -0.867850|    1.620209|    1.631978|    4.549012|    0.436731|    0.022235|
|         107|           0|   -0.885734|    1.611228|    1.624050|    4.534257|    0.443107|    0.022064|
|         108|           0|   -0.903905|    1.601322|    1.615392|    4.519991|    0.449376|    0.021835|
|         109|           0|   -0.921989|    1.589530|    1.605872|    4.505989|    0.455457|    0.021555|
|         110|           0|   -0.939223|    1.576261|    1.595303|    4.493041|    0.461253|    0.021229|
+-----------------------------------------------------------------------+
|        File Writing Summary       |              Filename             |
+-----------------------------------------------------------------------+
|SU2 restart                        |solution_flow.dat                  |
|Paraview                           |flow.vtu                           |
|Paraview surface                   |surface_flow.vtu                   |
+-----------------------------------------------------------------------+

Writing the forces breakdown file (forces_breakdown.dat).
+-------------------------------------------------------------------------------------------------------+
|  Inner_Iter|   Time_Iter|    rms[Rho]|   rms[RhoU]|   rms[RhoV]|   rms[RhoE]|          CL|          CD|
+-------------------------------------------------------------------------------------------------------+
|         111|           0|   -0.955454|    1.562542|    1.584247|    4.481035|    0.466702|    0.020865|
|         112|           0|   -0.970202|    1.548064|    1.572493|    4.470134|    0.471725|    0.020467|
|         113|           0|   -0.983077|    1.533693|    1.560336|    4.460400|    0.476278|    0.020041|
|         114|           0|   -0.993773|    1.519991|    1.547873|    4.451908|    0.480310|    0.019592|
|         115|           0|   -1.002614|    1.506489|    1.535346|    4.444243|    0.483796|    0.019126|
|         116|           0|   -1.010253|    1.494408|    1.523319|    4.436643|    0.486704|    0.018644|
|         117|           0|   -1.016771|    1.484564|    1.512220|    4.429119|    0.489027|    0.018154|
|         118|           0|   -1.022873|    1.477418|    1.502338|    4.421152|    0.490752|    0.017657|
|         119|           0|   -1.028884|    1.472825|    1.493800|    4.412468|    0.491901|    0.017160|
|         120|           0|   -1.035489|    1.471091|    1.486893|    4.402494|    0.492483|    0.016663|
+-----------------------------------------------------------------------+
|        File Writing Summary       |              Filename             |
+-----------------------------------------------------------------------+
|SU2 restart                        |solution_flow.dat                  |
|Paraview                           |flow.vtu                           |
|Paraview surface                   |surface_flow.vtu                   |
+-----------------------------------------------------------------------+

Writing the forces breakdown file (forces_breakdown.dat).
+-------------------------------------------------------------------------------------------------------+
|  Inner_Iter|   Time_Iter|    rms[Rho]|   rms[RhoU]|   rms[RhoV]|   rms[RhoE]|          CL|          CD|
+-------------------------------------------------------------------------------------------------------+
|         121|           0|   -1.042779|    1.472208|    1.481694|    4.391275|    0.492536|    0.016173|
|         122|           0|   -1.050953|    1.475959|    1.478098|    4.378770|    0.492079|    0.015691|
|         123|           0|   -1.059905|    1.481168|    1.475901|    4.365261|    0.491168|    0.015224|
|         124|           0|   -1.069641|    1.486515|    1.474614|    4.350752|    0.489843|    0.014773|
|         125|           0|   -1.080343|    1.491698|    1.473685|    4.335230|    0.488165|    0.014343|
|         126|           0|   -1.092021|    1.496139|    1.472824|    4.318802|    0.486180|    0.013934|
|         127|           0|   -1.104675|    1.499420|    1.471747|    4.301708|    0.483961|    0.013556|
|         128|           0|   -1.117953|    1.501369|    1.470023|    4.284551|    0.481556|    0.013206|
|         129|           0|   -1.131597|    1.501458|    1.467144|    4.267892|    0.479035|    0.012892|
|         130|           0|   -1.145824|    1.499818|    1.462703|    4.251610|    0.476445|    0.012614|
+-----------------------------------------------------------------------+
|        File Writing Summary       |              Filename             |
+-----------------------------------------------------------------------+
|SU2 restart                        |solution_flow.dat                  |
|Paraview                           |flow.vtu                           |
|Paraview surface                   |surface_flow.vtu                   |
+-----------------------------------------------------------------------+

Writing the forces breakdown file (forces_breakdown.dat).
+-------------------------------------------------------------------------------------------------------+
|  Inner_Iter|   Time_Iter|    rms[Rho]|   rms[RhoU]|   rms[RhoV]|   rms[RhoE]|          CL|          CD|
+-------------------------------------------------------------------------------------------------------+
|         131|           0|   -1.160484|    1.496255|    1.456369|    4.236051|    0.473852|    0.012378|
|         132|           0|   -1.175230|    1.490591|    1.447941|    4.222001|    0.471299|    0.012184|
|         133|           0|   -1.189662|    1.482812|    1.437164|    4.210013|    0.468847|    0.012037|
|         134|           0|   -1.203548|    1.472923|    1.423865|    4.200258|    0.466531|    0.011937|
|         135|           0|   -1.216274|    1.460796|    1.408179|    4.193210|    0.464400|    0.011888|
|         136|           0|   -1.227458|    1.446462|    1.390336|    4.188990|    0.462473|    0.011889|
|         137|           0|   -1.237069|    1.429779|    1.370587|    4.187057|    0.460790|    0.011945|
|         138|           0|   -1.245032|    1.410905|    1.349007|    4.187135|    0.459361|    0.012051|
|         139|           0|   -1.252165|    1.390293|    1.325937|    4.187685|    0.458214|    0.012212|
|         140|           0|   -1.258160|    1.368493|    1.302234|    4.188785|    0.457349|    0.012423|
+-----------------------------------------------------------------------+
|        File Writing Summary       |              Filename             |
+-----------------------------------------------------------------------+
|SU2 restart                        |solution_flow.dat                  |
|Paraview                           |flow.vtu                           |
|Paraview surface                   |surface_flow.vtu                   |
+-----------------------------------------------------------------------+

Writing the forces breakdown file (forces_breakdown.dat).
+-------------------------------------------------------------------------------------------------------+
|  Inner_Iter|   Time_Iter|    rms[Rho]|   rms[RhoU]|   rms[RhoV]|   rms[RhoE]|          CL|          CD|
+-------------------------------------------------------------------------------------------------------+
|         141|           0|   -1.263796|    1.346355|    1.278782|    4.189214|    0.456782|    0.012685|
|         142|           0|   -1.269119|    1.324637|    1.256732|    4.188893|    0.456501|    0.012991|
|         143|           0|   -1.274528|    1.304378|    1.237505|    4.187422|    0.456516|    0.013345|
|         144|           0|   -1.280288|    1.286761|    1.222497|    4.184351|    0.456805|    0.013735|
|         145|           0|   -1.286602|    1.272772|    1.212762|    4.179423|    0.457364|    0.014163|
|         146|           0|   -1.293343|    1.263177|    1.208723|    4.172738|    0.458167|    0.014617|
|         147|           0|   -1.300693|    1.258591|    1.210333|    4.164220|    0.459210|    0.015096|
|         148|           0|   -1.308584|    1.258595|    1.216527|    4.153921|    0.460459|    0.015590|
|         149|           0|   -1.316754|    1.262712|    1.225913|    4.142217|    0.461902|    0.016094|
|         150|           0|   -1.325471|    1.269289|    1.237114|    4.128675|    0.463499|    0.016598|
+-----------------------------------------------------------------------+
|        File Writing Summary       |              Filename             |
+-----------------------------------------------------------------------+
|SU2 restart                        |solution_flow.dat                  |
|Paraview                           |flow.vtu                           |
|Paraview surface                   |surface_flow.vtu                   |
+-----------------------------------------------------------------------+

Writing the forces breakdown file (forces_breakdown.dat).
+-------------------------------------------------------------------------------------------------------+
|  Inner_Iter|   Time_Iter|    rms[Rho]|   rms[RhoU]|   rms[RhoV]|   rms[RhoE]|          CL|          CD|
+-------------------------------------------------------------------------------------------------------+
|         151|           0|   -1.334436|    1.277338|    1.248830|    4.113716|    0.465244|    0.017098|
|         152|           0|   -1.342724|    1.286046|    1.259744|    4.098554|    0.467094|    0.017582|
|         153|           0|   -1.350622|    1.293144|    1.268916|    4.082751|    0.469039|    0.018046|
|         154|           0|   -1.357697|    1.299276|    1.275953|    4.067322|    0.471037|    0.018480|
|         155|           0|   -1.363797|    1.303576|    1.280491|    4.052741|    0.473078|    0.018880|
|         156|           0|   -1.368466|    1.306214|    1.282291|    4.040229|    0.475126|    0.019237|
|         157|           0|   -1.372223|    1.307118|    1.281003|    4.029756|    0.477172|    0.019546|
|         158|           0|   -1.374882|    1.305902|    1.276736|    4.022000|    0.479183|    0.019800|
|         159|           0|   -1.376678|    1.301743|    1.269433|    4.016939|    0.481154|    0.019997|
|         160|           0|   -1.378032|    1.295650|    1.258950|    4.014535|    0.483055|    0.020131|
+-----------------------------------------------------------------------+
|        File Writing Summary       |              Filename             |
+-----------------------------------------------------------------------+
|SU2 restart                        |solution_flow.dat                  |
|Paraview                           |flow.vtu                           |
|Paraview surface                   |surface_flow.vtu                   |
+-----------------------------------------------------------------------+

Writing the forces breakdown file (forces_breakdown.dat).
+-------------------------------------------------------------------------------------------------------+
|  Inner_Iter|   Time_Iter|    rms[Rho]|   rms[RhoU]|   rms[RhoV]|   rms[RhoE]|          CL|          CD|
+-------------------------------------------------------------------------------------------------------+
|         161|           0|   -1.378945|    1.287254|    1.245212|    4.014633|    0.484883|    0.020201|
|         162|           0|   -1.379878|    1.276397|    1.228410|    4.016501|    0.486611|    0.020203|
|         163|           0|   -1.381147|    1.263142|    1.208667|    4.019509|    0.488241|    0.020138|
|         164|           0|   -1.383092|    1.247293|    1.186145|    4.022876|    0.489754|    0.020005|
|         165|           0|   -1.385861|    1.229178|    1.161034|    4.026168|    0.491152|    0.019806|
|         166|           0|   -1.389525|    1.209049|    1.133706|    4.029026|    0.492419|    0.019542|
|         167|           0|   -1.394034|    1.187199|    1.104754|    4.031235|    0.493561|    0.019218|
|         168|           0|   -1.399449|    1.164235|    1.075141|    4.032493|    0.494568|    0.018836|
|         169|           0|   -1.405878|    1.140731|    1.046380|    4.032394|    0.495445|    0.018403|
|         170|           0|   -1.413998|    1.117636|    1.019875|    4.030067|    0.496186|    0.017924|
+-----------------------------------------------------------------------+
|        File Writing Summary       |              Filename             |
+-----------------------------------------------------------------------+
|SU2 restart                        |solution_flow.dat                  |
|Paraview                           |flow.vtu                           |
|Paraview surface                   |surface_flow.vtu                   |
+-----------------------------------------------------------------------+

Writing the forces breakdown file (forces_breakdown.dat).
+-------------------------------------------------------------------------------------------------------+
|  Inner_Iter|   Time_Iter|    rms[Rho]|   rms[RhoU]|   rms[RhoV]|   rms[RhoE]|          CL|          CD|
+-------------------------------------------------------------------------------------------------------+
|         171|           0|   -1.423838|    1.095861|    0.997148|    4.025357|    0.496802|    0.017406|
|         172|           0|   -1.435259|    1.076106|    0.980053|    4.018363|    0.497286|    0.016856|
|         173|           0|   -1.448169|    1.058956|    0.969535|    4.008947|    0.497651|    0.016282|
|         174|           0|   -1.462073|    1.044869|    0.965604|    3.997499|    0.497892|    0.015691|
|         175|           0|   -1.476610|    1.034831|    0.967508|    3.984307|    0.498027|    0.015093|
|         176|           0|   -1.491688|    1.028932|    0.973569|    3.969302|    0.498052|    0.014494|
|         177|           0|   -1.506995|    1.026860|    0.982226|    3.952737|    0.497983|    0.013905|
|         178|           0|   -1.522427|    1.027760|    0.991882|    3.934512|    0.497818|    0.013332|
|         179|           0|   -1.537195|    1.030550|    1.001205|    3.915389|    0.497574|    0.012785|
|         180|           0|   -1.550820|    1.034396|    1.009032|    3.895957|    0.497249|    0.012269|
+-----------------------------------------------------------------------+
|        File Writing Summary       |              Filename             |
+-----------------------------------------------------------------------+
|SU2 restart                        |solution_flow.dat                  |
|Paraview                           |flow.vtu                           |
|Paraview surface                   |surface_flow.vtu                   |
+-----------------------------------------------------------------------+

Writing the forces breakdown file (forces_breakdown.dat).
+-------------------------------------------------------------------------------------------------------+
|  Inner_Iter|   Time_Iter|    rms[Rho]|   rms[RhoU]|   rms[RhoV]|   rms[RhoE]|          CL|          CD|
+-------------------------------------------------------------------------------------------------------+
|         181|           0|   -1.563055|    1.038640|    1.014747|    3.876638|    0.496864|    0.011794|
|         182|           0|   -1.573641|    1.042603|    1.017968|    3.858060|    0.496415|    0.011363|
|         183|           0|   -1.582437|    1.045560|    1.018312|    3.840858|    0.495922|    0.010984|
|         184|           0|   -1.589481|    1.046808|    1.015627|    3.825635|    0.495381|    0.010659|
|         185|           0|   -1.595154|    1.046256|    1.009844|    3.812534|    0.494815|    0.010396|
|         186|           0|   -1.599453|    1.043651|    1.000957|    3.802079|    0.494219|    0.010192|
|         187|           0|   -1.603098|    1.039278|    0.989049|    3.793889|    0.493613|    0.010055|
|         188|           0|   -1.606495|    1.032981|    0.974188|    3.787673|    0.492995|    0.009980|
|         189|           0|   -1.610063|    1.024545|    0.956594|    3.782962|    0.492387|    0.009972|
|         190|           0|   -1.614064|    1.013899|    0.936230|    3.779381|    0.491782|    0.010026|
+-----------------------------------------------------------------------+
|        File Writing Summary       |              Filename             |
+-----------------------------------------------------------------------+
|SU2 restart                        |solution_flow.dat                  |
|Paraview                           |flow.vtu                           |
|Paraview surface                   |surface_flow.vtu                   |
+-----------------------------------------------------------------------+

Writing the forces breakdown file (forces_breakdown.dat).
+-------------------------------------------------------------------------------------------------------+
|  Inner_Iter|   Time_Iter|    rms[Rho]|   rms[RhoU]|   rms[RhoV]|   rms[RhoE]|          CL|          CD|
+-------------------------------------------------------------------------------------------------------+
|         191|           0|   -1.618769|    1.000789|    0.913520|    3.776480|    0.491201|    0.010144|
|         192|           0|   -1.624648|    0.985767|    0.888743|    3.773384|    0.490641|    0.010318|
|         193|           0|   -1.632196|    0.969064|    0.862208|    3.769256|    0.490120|    0.010549|
|         194|           0|   -1.641236|    0.950730|    0.834677|    3.764281|    0.489634|    0.010828|
|         195|           0|   -1.651140|    0.930381|    0.806931|    3.758998|    0.489201|    0.011154|
|         196|           0|   -1.663066|    0.909055|    0.779921|    3.751852|    0.488815|    0.011518|
|         197|           0|   -1.677149|    0.886939|    0.754649|    3.742425|    0.488493|    0.011917|
|         198|           0|   -1.693318|    0.864403|    0.732459|    3.730904|    0.488228|    0.012341|
|         199|           0|   -1.711274|    0.841619|    0.714232|    3.717543|    0.488034|    0.012788|
|         200|           0|   -1.730802|    0.819037|    0.700490|    3.702442|    0.487904|    0.013245|
+-----------------------------------------------------------------------+
|        File Writing Summary       |              Filename             |
+-----------------------------------------------------------------------+
|SU2 restart                        |solution_flow.dat                  |
|Paraview                           |flow.vtu                           |
|Paraview surface                   |surface_flow.vtu                   |
+-----------------------------------------------------------------------+

Writing the forces breakdown file (forces_breakdown.dat).
+-------------------------------------------------------------------------------------------------------+
|  Inner_Iter|   Time_Iter|    rms[Rho]|   rms[RhoU]|   rms[RhoV]|   rms[RhoE]|          CL|          CD|
+-------------------------------------------------------------------------------------------------------+
|         201|           0|   -1.751766|    0.796989|    0.691376|    3.685593|    0.487847|    0.013711|
|         202|           0|   -1.773745|    0.776031|    0.686361|    3.667421|    0.487857|    0.014174|
|         203|           0|   -1.796415|    0.756699|    0.684619|    3.648145|    0.487942|    0.014631|
|         204|           0|   -1.819412|    0.739476|    0.685195|    3.628016|    0.488094|    0.015072|
|         205|           0|   -1.842394|    0.724661|    0.686976|    3.607244|    0.488321|    0.015496|
|         206|           0|   -1.864969|    0.712407|    0.689093|    3.586101|    0.488612|    0.015892|
|         207|           0|   -1.886672|    0.702643|    0.690792|    3.564981|    0.488972|    0.016260|
|         208|           0|   -1.907133|    0.695171|    0.691433|    3.544198|    0.489391|    0.016591|
|         209|           0|   -1.925808|    0.689706|    0.690671|    3.524343|    0.489872|    0.016885|
|         210|           0|   -1.942712|    0.685755|    0.688334|    3.505472|    0.490405|    0.017136|
+-----------------------------------------------------------------------+
|        File Writing Summary       |              Filename             |
+-----------------------------------------------------------------------+
|SU2 restart                        |solution_flow.dat                  |
|Paraview                           |flow.vtu                           |
|Paraview surface                   |surface_flow.vtu                   |
+-----------------------------------------------------------------------+

Writing the forces breakdown file (forces_breakdown.dat).
+-------------------------------------------------------------------------------------------------------+
|  Inner_Iter|   Time_Iter|    rms[Rho]|   rms[RhoU]|   rms[RhoV]|   rms[RhoE]|          CL|          CD|
+-------------------------------------------------------------------------------------------------------+
|         211|           0|   -1.957569|    0.682844|    0.684296|    3.488016|    0.490992|    0.017346|
|         212|           0|   -1.970639|    0.680670|    0.678542|    3.471895|    0.491622|    0.017508|
|         213|           0|   -1.982317|    0.678799|    0.671169|    3.456866|    0.492296|    0.017626|
|         214|           0|   -1.992878|    0.676876|    0.662336|    3.442802|    0.492999|    0.017696|
|         215|           0|   -2.002641|    0.674758|    0.652098|    3.429522|    0.493734|    0.017722|
|         216|           0|   -2.012081|    0.672093|    0.640755|    3.416587|    0.494485|    0.017701|
|         217|           0|   -2.021611|    0.668354|    0.628611|    3.403400|    0.495253|    0.017638|
|         218|           0|   -2.031014|    0.664196|    0.615947|    3.390649|    0.496023|    0.017533|
|         219|           0|   -2.040455|    0.659585|    0.603017|    3.378177|    0.496797|    0.017392|
|         220|           0|   -2.049901|    0.654341|    0.590128|    3.366020|    0.497561|    0.017214|
+-----------------------------------------------------------------------+
|        File Writing Summary       |              Filename             |
+-----------------------------------------------------------------------+
|SU2 restart                        |solution_flow.dat                  |
|Paraview                           |flow.vtu                           |
|Paraview surface                   |surface_flow.vtu                   |
+-----------------------------------------------------------------------+

Writing the forces breakdown file (forces_breakdown.dat).
+-------------------------------------------------------------------------------------------------------+
|  Inner_Iter|   Time_Iter|    rms[Rho]|   rms[RhoU]|   rms[RhoV]|   rms[RhoE]|          CL|          CD|
+-------------------------------------------------------------------------------------------------------+
|         221|           0|   -2.060022|    0.648810|    0.577593|    3.353545|    0.498318|    0.017008|
|         222|           0|   -2.070447|    0.643231|    0.565720|    3.341175|    0.499052|    0.016772|
|         223|           0|   -2.080622|    0.637547|    0.554752|    3.329406|    0.499767|    0.016516|
|         224|           0|   -2.090428|    0.631715|    0.544879|    3.318303|    0.500447|    0.016241|
|         225|           0|   -2.099944|    0.625822|    0.536258|    3.307729|    0.501098|    0.015952|
|         226|           0|   -2.109143|    0.619882|    0.528983|    3.297694|    0.501703|    0.015652|
|         227|           0|   -2.117615|    0.613933|    0.523084|    3.288536|    0.502268|    0.015349|
|         228|           0|   -2.125380|    0.608039|    0.518514|    3.280175|    0.502780|    0.015043|
|         229|           0|   -2.132432|    0.602208|    0.515127|    3.272554|    0.503248|    0.014741|
|         230|           0|   -2.138863|    0.596444|    0.512775|    3.265561|    0.503658|    0.014444|
+-----------------------------------------------------------------------+
|        File Writing Summary       |              Filename             |
+-----------------------------------------------------------------------+
|SU2 restart                        |solution_flow.dat                  |
|Paraview                           |flow.vtu                           |
|Paraview surface                   |surface_flow.vtu                   |
+-----------------------------------------------------------------------+

Writing the forces breakdown file (forces_breakdown.dat).
+-------------------------------------------------------------------------------------------------------+
|  Inner_Iter|   Time_Iter|    rms[Rho]|   rms[RhoU]|   rms[RhoV]|   rms[RhoE]|          CL|          CD|
+-------------------------------------------------------------------------------------------------------+
|         231|           0|   -2.144948|    0.590726|    0.511220|    3.258764|    0.504018|    0.014160|
|         232|           0|   -2.150528|    0.584984|    0.510256|    3.252447|    0.504321|    0.013888|
|         233|           0|   -2.155490|    0.579131|    0.509680|    3.246778|    0.504574|    0.013634|
|         234|           0|   -2.159930|    0.573084|    0.509240|    3.241694|    0.504767|    0.013397|
|         235|           0|   -2.163826|    0.566765|    0.508724|    3.237363|    0.504912|    0.013183|
|         236|           0|   -2.167110|    0.560012|    0.507917|    3.234013|    0.505000|    0.012990|
|         237|           0|   -2.169733|    0.552738|    0.506669|    3.231834|    0.505044|    0.012823|
|         238|           0|   -2.171711|    0.544894|    0.504825|    3.230941|    0.505036|    0.012679|
|         239|           0|   -2.172969|    0.536461|    0.502275|    3.231552|    0.504988|    0.012562|
|         240|           0|   -2.173540|    0.527590|    0.498970|    3.233722|    0.504897|    0.012468|
+-----------------------------------------------------------------------+
|        File Writing Summary       |              Filename             |
+-----------------------------------------------------------------------+
|SU2 restart                        |solution_flow.dat                  |
|Paraview                           |flow.vtu                           |
|Paraview surface                   |surface_flow.vtu                   |
+-----------------------------------------------------------------------+

Writing the forces breakdown file (forces_breakdown.dat).
+-------------------------------------------------------------------------------------------------------+
|  Inner_Iter|   Time_Iter|    rms[Rho]|   rms[RhoU]|   rms[RhoV]|   rms[RhoE]|          CL|          CD|
+-------------------------------------------------------------------------------------------------------+
|         241|           0|   -2.173227|    0.518233|    0.494874|    3.237639|    0.504774|    0.012401|
|         242|           0|   -2.172055|    0.508502|    0.490057|    3.243167|    0.504615|    0.012355|
|         243|           0|   -2.170215|    0.498646|    0.484621|    3.249911|    0.504434|    0.012335|
|         244|           0|   -2.167779|    0.488949|    0.478718|    3.257642|    0.504226|    0.012335|
|         245|           0|   -2.164811|    0.479792|    0.472565|    3.266076|    0.504007|    0.012358|
|         246|           0|   -2.161371|    0.471654|    0.466413|    3.274956|    0.503770|    0.012396|
|         247|           0|   -2.157635|    0.464951|    0.460570|    3.283838|    0.503530|    0.012454|
|         248|           0|   -2.153671|    0.460121|    0.455377|    3.292452|    0.503280|    0.012524|
|         249|           0|   -2.149666|    0.457577|    0.451205|    3.300405|    0.503037|    0.012609|
|         250|           0|   -2.145781|    0.457573|    0.448356|    3.307389|    0.502793|    0.012701|
+-----------------------------------------------------------------------+
|        File Writing Summary       |              Filename             |
+-----------------------------------------------------------------------+
|SU2 restart                        |solution_flow.dat                  |
|Paraview                           |flow.vtu                           |
|Paraview surface                   |surface_flow.vtu                   |
+-----------------------------------------------------------------------+

Writing the forces breakdown file (forces_breakdown.dat).
+-------------------------------------------------------------------------------------------------------+
|  Inner_Iter|   Time_Iter|    rms[Rho]|   rms[RhoU]|   rms[RhoV]|   rms[RhoE]|          CL|          CD|
+-------------------------------------------------------------------------------------------------------+
|         251|           0|   -2.142173|    0.460243|    0.447114|    3.313137|    0.502564|    0.012805|
|         252|           0|   -2.138744|    0.465441|    0.447636|    3.317665|    0.502344|    0.012912|
|         253|           0|   -2.135524|    0.472883|    0.449939|    3.320865|    0.502147|    0.013026|
|         254|           0|   -2.132466|    0.482055|    0.453928|    3.322766|    0.501964|    0.013139|
|         255|           0|   -2.129566|    0.492442|    0.459328|    3.323380|    0.501807|    0.013255|
|         256|           0|   -2.126874|    0.503492|    0.465797|    3.322664|    0.501670|    0.013368|
|         257|           0|   -2.124194|    0.514698|    0.472947|    3.320912|    0.501563|    0.013480|
|         258|           0|   -2.121532|    0.525532|    0.480397|    3.318215|    0.501480|    0.013586|
|         259|           0|   -2.118999|    0.535545|    0.487750|    3.314573|    0.501427|    0.013688|
|         260|           0|   -2.116382|    0.544510|    0.494653|    3.310426|    0.501398|    0.013781|
+-----------------------------------------------------------------------+
|        File Writing Summary       |              Filename             |
+-----------------------------------------------------------------------+
|SU2 restart                        |solution_flow.dat                  |
|Paraview                           |flow.vtu                           |
|Paraview surface                   |surface_flow.vtu                   |
+-----------------------------------------------------------------------+

Writing the forces breakdown file (forces_breakdown.dat).
+-------------------------------------------------------------------------------------------------------+
|  Inner_Iter|   Time_Iter|    rms[Rho]|   rms[RhoU]|   rms[RhoV]|   rms[RhoE]|          CL|          CD|
+-------------------------------------------------------------------------------------------------------+
|         261|           0|   -2.113580|    0.552221|    0.500798|    3.306164|    0.501401|    0.013869|
|         262|           0|   -2.110590|    0.558451|    0.505918|    3.302088|    0.501428|    0.013947|
|         263|           0|   -2.107347|    0.563056|    0.509821|    3.298628|    0.501485|    0.014018|
|         264|           0|   -2.104017|    0.565903|    0.512287|    3.295951|    0.501564|    0.014080|
|         265|           0|   -2.100677|    0.566906|    0.513275|    3.294291|    0.501671|    0.014133|
|         266|           0|   -2.097356|    0.565919|    0.512768|    3.293860|    0.501797|    0.014177|
|         267|           0|   -2.094062|    0.562902|    0.510659|    3.294879|    0.501947|    0.014215|
|         268|           0|   -2.090918|    0.557855|    0.507007|    3.297321|    0.502116|    0.014243|
|         269|           0|   -2.088218|    0.550919|    0.501858|    3.300819|    0.502304|    0.014266|
|         270|           0|   -2.085962|    0.542071|    0.495390|    3.305236|    0.502504|    0.014280|
+-----------------------------------------------------------------------+
|        File Writing Summary       |              Filename             |
+-----------------------------------------------------------------------+
|SU2 restart                        |solution_flow.dat                  |
|Paraview                           |flow.vtu                           |
|Paraview surface                   |surface_flow.vtu                   |
+-----------------------------------------------------------------------+

Writing the forces breakdown file (forces_breakdown.dat).
+-------------------------------------------------------------------------------------------------------+
|  Inner_Iter|   Time_Iter|    rms[Rho]|   rms[RhoU]|   rms[RhoV]|   rms[RhoE]|          CL|          CD|
+-------------------------------------------------------------------------------------------------------+
|         271|           0|   -2.084314|    0.531392|    0.487764|    3.310227|    0.502720|    0.014290|
|         272|           0|   -2.083328|    0.519006|    0.479171|    3.315555|    0.502942|    0.014293|
|         273|           0|   -2.083133|    0.505089|    0.469886|    3.320851|    0.503177|    0.014293|
|         274|           0|   -2.083775|    0.489838|    0.460272|    3.325854|    0.503413|    0.014288|
|         275|           0|   -2.085182|    0.473555|    0.450672|    3.330457|    0.503658|    0.014281|
|         276|           0|   -2.087396|    0.456693|    0.441489|    3.334389|    0.503901|    0.014270|
|         277|           0|   -2.090379|    0.439789|    0.433124|    3.337478|    0.504148|    0.014259|
|         278|           0|   -2.094175|    0.423595|    0.425972|    3.339499|    0.504390|    0.014245|
|         279|           0|   -2.098737|    0.408795|    0.420392|    3.340328|    0.504631|    0.014233|
|         280|           0|   -2.103900|    0.396162|    0.416628|    3.339992|    0.504864|    0.014219|
+-----------------------------------------------------------------------+
|        File Writing Summary       |              Filename             |
+-----------------------------------------------------------------------+
|SU2 restart                        |solution_flow.dat                  |
|Paraview                           |flow.vtu                           |
|Paraview surface                   |surface_flow.vtu                   |
+-----------------------------------------------------------------------+

Writing the forces breakdown file (forces_breakdown.dat).
+-------------------------------------------------------------------------------------------------------+
|  Inner_Iter|   Time_Iter|    rms[Rho]|   rms[RhoU]|   rms[RhoV]|   rms[RhoE]|          CL|          CD|
+-------------------------------------------------------------------------------------------------------+
|         281|           0|   -2.109608|    0.386357|    0.414643|    3.338395|    0.505096|    0.014207|
|         282|           0|   -2.115685|    0.379945|    0.414588|    3.335536|    0.505316|    0.014194|
|         283|           0|   -2.121862|    0.377172|    0.416269|    3.331581|    0.505533|    0.014184|
|         284|           0|   -2.127842|    0.377974|    0.419369|    3.326754|    0.505738|    0.014173|
|         285|           0|   -2.133536|    0.381930|    0.423507|    3.321043|    0.505939|    0.014165|
|         286|           0|   -2.138659|    0.388363|    0.428272|    3.314706|    0.506126|    0.014157|
|         287|           0|   -2.143217|    0.396273|    0.433213|    3.307672|    0.506307|    0.014151|
|         288|           0|   -2.147065|    0.405041|    0.437970|    3.300139|    0.506476|    0.014145|
|         289|           0|   -2.150184|    0.414402|    0.442227|    3.292325|    0.506640|    0.014141|
|         290|           0|   -2.152287|    0.423643|    0.445658|    3.284735|    0.506789|    0.014135|
+-----------------------------------------------------------------------+
|        File Writing Summary       |              Filename             |
+-----------------------------------------------------------------------+
|SU2 restart                        |solution_flow.dat                  |
|Paraview                           |flow.vtu                           |
|Paraview surface                   |surface_flow.vtu                   |
+-----------------------------------------------------------------------+

Writing the forces breakdown file (forces_breakdown.dat).
+-------------------------------------------------------------------------------------------------------+
|  Inner_Iter|   Time_Iter|    rms[Rho]|   rms[RhoU]|   rms[RhoV]|   rms[RhoE]|          CL|          CD|
+-------------------------------------------------------------------------------------------------------+
|         291|           0|   -2.153552|    0.432360|    0.448059|    3.277424|    0.506935|    0.014131|
|         292|           0|   -2.154014|    0.439784|    0.449194|    3.270562|    0.507068|    0.014125|
|         293|           0|   -2.153823|    0.445950|    0.448967|    3.264334|    0.507199|    0.014121|
|         294|           0|   -2.153042|    0.450755|    0.447320|    3.259029|    0.507319|    0.014113|
|         295|           0|   -2.151967|    0.454038|    0.444225|    3.254613|    0.507434|    0.014106|
|         296|           0|   -2.150886|    0.455675|    0.439712|    3.250984|    0.507541|    0.014095|
|         297|           0|   -2.150022|    0.455600|    0.433798|    3.248113|    0.507646|    0.014084|
|         298|           0|   -2.149616|    0.453835|    0.426549|    3.245863|    0.507741|    0.014068|
|         299|           0|   -2.149702|    0.450308|    0.418037|    3.244241|    0.507835|    0.014051|
|         300|           0|   -2.150445|    0.445046|    0.408396|    3.243069|    0.507920|    0.014029|
+-----------------------------------------------------------------------+
|        File Writing Summary       |              Filename             |
+-----------------------------------------------------------------------+
|SU2 restart                        |solution_flow.dat                  |
|Paraview                           |flow.vtu                           |
|Paraview surface                   |surface_flow.vtu                   |
+-----------------------------------------------------------------------+

Writing the forces breakdown file (forces_breakdown.dat).
+-------------------------------------------------------------------------------------------------------+
|  Inner_Iter|   Time_Iter|    rms[Rho]|   rms[RhoU]|   rms[RhoV]|   rms[RhoE]|          CL|          CD|
+-------------------------------------------------------------------------------------------------------+
|         301|           0|   -2.151969|    0.438134|    0.397829|    3.242171|    0.508006|    0.014005|
|         302|           0|   -2.154361|    0.429655|    0.386477|    3.241363|    0.508084|    0.013976|
|         303|           0|   -2.157710|    0.419682|    0.374545|    3.240419|    0.508161|    0.013946|
|         304|           0|   -2.161937|    0.408374|    0.362312|    3.239347|    0.508230|    0.013910|
|         305|           0|   -2.167033|    0.395886|    0.350088|    3.238047|    0.508301|    0.013873|
|         306|           0|   -2.173085|    0.382435|    0.338174|    3.236266|    0.508363|    0.013830|
|         307|           0|   -2.180040|    0.368294|    0.326875|    3.233922|    0.508426|    0.013787|
|         308|           0|   -2.187826|    0.353870|    0.316474|    3.230948|    0.508481|    0.013738|
|         309|           0|   -2.196315|    0.339530|    0.307160|    3.227345|    0.508535|    0.013690|
|         310|           0|   -2.205509|    0.325737|    0.299132|    3.222916|    0.508579|    0.013636|
+-----------------------------------------------------------------------+
|        File Writing Summary       |              Filename             |
+-----------------------------------------------------------------------+
|SU2 restart                        |solution_flow.dat                  |
|Paraview                           |flow.vtu                           |
|Paraview surface                   |surface_flow.vtu                   |
+-----------------------------------------------------------------------+

Writing the forces breakdown file (forces_breakdown.dat).
+-------------------------------------------------------------------------------------------------------+
|  Inner_Iter|   Time_Iter|    rms[Rho]|   rms[RhoU]|   rms[RhoV]|   rms[RhoE]|          CL|          CD|
+-------------------------------------------------------------------------------------------------------+
|         311|           0|   -2.215274|    0.312934|    0.292525|    3.217676|    0.508621|    0.013584|
|         312|           0|   -2.225472|    0.301546|    0.287382|    3.211627|    0.508655|    0.013529|
|         313|           0|   -2.235917|    0.291943|    0.283652|    3.204847|    0.508687|    0.013475|
|         314|           0|   -2.246264|    0.284336|    0.281194|    3.197548|    0.508710|    0.013419|
|         315|           0|   -2.256365|    0.279014|    0.279835|    3.189748|    0.508729|    0.013366|
|         316|           0|   -2.266039|    0.276023|    0.279340|    3.181484|    0.508740|    0.013313|
|         317|           0|   -2.275168|    0.275265|    0.279477|    3.172750|    0.508748|    0.013264|
|         318|           0|   -2.283437|    0.276461|    0.279948|    3.163829|    0.508743|    0.013214|
|         319|           0|   -2.290725|    0.279222|    0.280525|    3.154814|    0.508736|    0.013171|
|         320|           0|   -2.296961|    0.283157|    0.280970|    3.145787|    0.508718|    0.013128|
+-----------------------------------------------------------------------+
|        File Writing Summary       |              Filename             |
+-----------------------------------------------------------------------+
|SU2 restart                        |solution_flow.dat                  |
|Paraview                           |flow.vtu                           |
|Paraview surface                   |surface_flow.vtu                   |
+-----------------------------------------------------------------------+

Writing the forces breakdown file (forces_breakdown.dat).
+-------------------------------------------------------------------------------------------------------+
|  Inner_Iter|   Time_Iter|    rms[Rho]|   rms[RhoU]|   rms[RhoV]|   rms[RhoE]|          CL|          CD|
+-------------------------------------------------------------------------------------------------------+
|         321|           0|   -2.301996|    0.287819|    0.281078|    3.137004|    0.508698|    0.013092|
|         322|           0|   -2.305797|    0.292754|    0.280683|    3.128653|    0.508669|    0.013059|
|         323|           0|   -2.308454|    0.297628|    0.279671|    3.120857|    0.508635|    0.013033|
|         324|           0|   -2.310185|    0.302086|    0.277942|    3.113623|    0.508595|    0.013011|
|         325|           0|   -2.311058|    0.305879|    0.275463|    3.107131|    0.508553|    0.012996|
|         326|           0|   -2.311296|    0.308910|    0.272230|    3.101424|    0.508503|    0.012985|
|         327|           0|   -2.311136|    0.310944|    0.268240|    3.096442|    0.508454|    0.012983|
|         328|           0|   -2.310884|    0.311927|    0.263569|    3.092049|    0.508398|    0.012985|
|         329|           0|   -2.310726|    0.311772|    0.258225|    3.088207|    0.508345|    0.012996|
|         330|           0|   -2.310835|    0.310406|    0.252307|    3.084843|    0.508287|    0.013011|
+-----------------------------------------------------------------------+
|        File Writing Summary       |              Filename             |
+-----------------------------------------------------------------------+
|SU2 restart                        |solution_flow.dat                  |
|Paraview                           |flow.vtu                           |
|Paraview surface                   |surface_flow.vtu                   |
+-----------------------------------------------------------------------+

Writing the forces breakdown file (forces_breakdown.dat).
+-------------------------------------------------------------------------------------------------------+
|  Inner_Iter|   Time_Iter|    rms[Rho]|   rms[RhoU]|   rms[RhoV]|   rms[RhoE]|          CL|          CD|
+-------------------------------------------------------------------------------------------------------+
|         331|           0|   -2.311367|    0.307762|    0.245865|    3.081867|    0.508232|    0.013034|
|         332|           0|   -2.312354|    0.303813|    0.239048|    3.079298|    0.508176|    0.013061|
|         333|           0|   -2.313775|    0.298546|    0.231963|    3.077192|    0.508126|    0.013096|
|         334|           0|   -2.315850|    0.291989|    0.224685|    3.075298|    0.508076|    0.013134|
|         335|           0|   -2.318709|    0.284164|    0.217283|    3.073427|    0.508034|    0.013180|
|         336|           0|   -2.322355|    0.275124|    0.209856|    3.071557|    0.507994|    0.013227|
|         337|           0|   -2.326835|    0.264927|    0.202521|    3.069584|    0.507966|    0.013281|
|         338|           0|   -2.332152|    0.253606|    0.195352|    3.067396|    0.507942|    0.013336|
|         339|           0|   -2.338171|    0.241263|    0.188467|    3.065062|    0.507931|    0.013396|
|         340|           0|   -2.344849|    0.228070|    0.181944|    3.062534|    0.507926|    0.013457|
+-----------------------------------------------------------------------+
|        File Writing Summary       |              Filename             |
+-----------------------------------------------------------------------+
|SU2 restart                        |solution_flow.dat                  |
|Paraview                           |flow.vtu                           |
|Paraview surface                   |surface_flow.vtu                   |
+-----------------------------------------------------------------------+

Writing the forces breakdown file (forces_breakdown.dat).
+-------------------------------------------------------------------------------------------------------+
|  Inner_Iter|   Time_Iter|    rms[Rho]|   rms[RhoU]|   rms[RhoV]|   rms[RhoE]|          CL|          CD|
+-------------------------------------------------------------------------------------------------------+
|         341|           0|   -2.352157|    0.214240|    0.175824|    3.059712|    0.507936|    0.013521|
|         342|           0|   -2.360009|    0.200022|    0.170167|    3.056585|    0.507952|    0.013583|
|         343|           0|   -2.368396|    0.185695|    0.165024|    3.053026|    0.507982|    0.013647|
|         344|           0|   -2.377128|    0.171593|    0.160391|    3.049100|    0.508021|    0.013709|
[...]
|         405|           0|   -2.581962|    0.021061|   -0.041022|    2.809117|    0.509981|    0.013488|
|         406|           0|   -2.585295|    0.012396|   -0.045614|    2.808316|    0.510019|    0.013531|
|         407|           0|   -2.589302|    0.002383|   -0.050796|    2.807631|    0.510068|    0.013575|
|         408|           0|   -2.593974|   -0.008869|   -0.056464|    2.806965|    0.510123|    0.013615|
|         409|           0|   -2.599259|   -0.021251|   -0.062585|    2.806263|    0.510191|    0.013655|
|         410|           0|   -2.605091|   -0.034561|   -0.069053|    2.805449|    0.510264|    0.013690|
+-----------------------------------------------------------------------+
|        File Writing Summary       |              Filename             |
+-----------------------------------------------------------------------+
|SU2 restart                        |solution_flow.dat                  |
|Paraview                           |flow.vtu                           |
|Paraview surface                   |surface_flow.vtu                   |
+-----------------------------------------------------------------------+

Writing the forces breakdown file (forces_breakdown.dat).
+-------------------------------------------------------------------------------------------------------+
|  Inner_Iter|   Time_Iter|    rms[Rho]|   rms[RhoU]|   rms[RhoV]|   rms[RhoE]|          CL|          CD|
+-------------------------------------------------------------------------------------------------------+
|         411|           0|   -2.611392|   -0.048569|   -0.075763|    2.804467|    0.510345|    0.013723|
|         412|           0|   -2.618102|   -0.062978|   -0.082596|    2.803213|    0.510429|    0.013751|
|         413|           0|   -2.625054|   -0.077449|   -0.089443|    2.801718|    0.510522|    0.013778|
|         414|           0|   -2.632038|   -0.091554|   -0.096149|    2.800016|    0.510616|    0.013798|
|         415|           0|   -2.638906|   -0.104810|   -0.102551|    2.798079|    0.510716|    0.013817|
|         416|           0|   -2.645512|   -0.116696|   -0.108519|    2.795879|    0.510814|    0.013829|
|         417|           0|   -2.651650|   -0.126739|   -0.113906|    2.793460|    0.510918|    0.013840|
|         418|           0|   -2.657271|   -0.134509|   -0.118555|    2.790708|    0.511019|    0.013844|
|         419|           0|   -2.662194|   -0.139731|   -0.122345|    2.787693|    0.511122|    0.013847|
|         420|           0|   -2.666292|   -0.142113|   -0.125191|    2.784447|    0.511220|    0.013843|
+-----------------------------------------------------------------------+
|        File Writing Summary       |              Filename             |
+-----------------------------------------------------------------------+
|SU2 restart                        |solution_flow.dat                  |
|Paraview                           |flow.vtu                           |
|Paraview surface                   |surface_flow.vtu                   |
+-----------------------------------------------------------------------+

Writing the forces breakdown file (forces_breakdown.dat).
+-------------------------------------------------------------------------------------------------------+
|  Inner_Iter|   Time_Iter|    rms[Rho]|   rms[RhoU]|   rms[RhoV]|   rms[RhoE]|          CL|          CD|
+-------------------------------------------------------------------------------------------------------+
|         421|           0|   -2.669645|   -0.141707|   -0.127068|    2.780815|    0.511320|    0.013837|
|         422|           0|   -2.672025|   -0.138797|   -0.127990|    2.777064|    0.511412|    0.013826|
|         423|           0|   -2.673516|   -0.133784|   -0.128014|    2.773127|    0.511503|    0.013813|
|         424|           0|   -2.674166|   -0.127171|   -0.127243|    2.769049|    0.511585|    0.013794|
|         425|           0|   -2.674082|   -0.119438|   -0.125824|    2.764867|    0.511666|    0.013775|
|         426|           0|   -2.673417|   -0.111090|   -0.123937|    2.760596|    0.511738|    0.013750|
|         427|           0|   -2.672243|   -0.102571|   -0.121751|    2.756371|    0.511805|    0.013725|
|         428|           0|   -2.670801|   -0.094314|   -0.119462|    2.752142|    0.511862|    0.013696|
|         429|           0|   -2.669271|   -0.086672|   -0.117256|    2.747938|    0.511918|    0.013667|
|         430|           0|   -2.667772|   -0.079938|   -0.115311|    2.743836|    0.511961|    0.013635|
+-----------------------------------------------------------------------+
|        File Writing Summary       |              Filename             |
+-----------------------------------------------------------------------+
|SU2 restart                        |solution_flow.dat                  |
|Paraview                           |flow.vtu                           |
|Paraview surface                   |surface_flow.vtu                   |
+-----------------------------------------------------------------------+

Writing the forces breakdown file (forces_breakdown.dat).
+-------------------------------------------------------------------------------------------------------+
|  Inner_Iter|   Time_Iter|    rms[Rho]|   rms[RhoU]|   rms[RhoV]|   rms[RhoE]|          CL|          CD|
+-------------------------------------------------------------------------------------------------------+
|         431|           0|   -2.666424|   -0.074359|   -0.113786|    2.739917|    0.512000|    0.013603|
|         432|           0|   -2.665348|   -0.070095|   -0.112817|    2.736245|    0.512026|    0.013568|
|         433|           0|   -2.664633|   -0.067222|   -0.112484|    2.732906|    0.512050|    0.013535|
|         434|           0|   -2.664422|   -0.065904|   -0.112935|    2.729865|    0.512064|    0.013500|
|         435|           0|   -2.664792|   -0.066170|   -0.114271|    2.727149|    0.512072|    0.013467|
|         436|           0|   -2.665846|   -0.068040|   -0.116540|    2.724722|    0.512070|    0.013432|
|         437|           0|   -2.667581|   -0.071519|   -0.119776|    2.722644|    0.512067|    0.013400|
|         438|           0|   -2.670005|   -0.076665|   -0.124055|    2.720884|    0.512054|    0.013367|
|         439|           0|   -2.673166|   -0.083466|   -0.129319|    2.719367|    0.512037|    0.013338|
|         440|           0|   -2.677047|   -0.091833|   -0.135524|    2.718070|    0.512011|    0.013308|
+-----------------------------------------------------------------------+
|        File Writing Summary       |              Filename             |
+-----------------------------------------------------------------------+
|SU2 restart                        |solution_flow.dat                  |
|Paraview                           |flow.vtu                           |
|Paraview surface                   |surface_flow.vtu                   |
+-----------------------------------------------------------------------+

Writing the forces breakdown file (forces_breakdown.dat).
+-------------------------------------------------------------------------------------------------------+
|  Inner_Iter|   Time_Iter|    rms[Rho]|   rms[RhoU]|   rms[RhoV]|   rms[RhoE]|          CL|          CD|
+-------------------------------------------------------------------------------------------------------+
|         441|           0|   -2.681566|   -0.101704|   -0.142637|    2.716986|    0.511986|    0.013282|
|         442|           0|   -2.686755|   -0.113000|   -0.150605|    2.715954|    0.511953|    0.013256|
|         443|           0|   -2.692406|   -0.125535|   -0.159309|    2.715107|    0.511920|    0.013235|
|         444|           0|   -2.698521|   -0.139096|   -0.168605|    2.714265|    0.511880|    0.013214|
|         445|           0|   -2.705137|   -0.153369|   -0.178321|    2.713190|    0.511843|    0.013197|
|         446|           0|   -2.712022|   -0.168004|   -0.188229|    2.711968|    0.511800|    0.013181|
|         447|           0|   -2.719059|   -0.182577|   -0.198089|    2.710538|    0.511759|    0.013170|
|         448|           0|   -2.726139|   -0.196568|   -0.207638|    2.708812|    0.511714|    0.013159|
|         449|           0|   -2.733098|   -0.209414|   -0.216579|    2.706753|    0.511674|    0.013153|
|         450|           0|   -2.739821|   -0.220544|   -0.224623|    2.704284|    0.511631|    0.013148|
+-----------------------------------------------------------------------+
|        File Writing Summary       |              Filename             |
+-----------------------------------------------------------------------+
|SU2 restart                        |solution_flow.dat                  |
|Paraview                           |flow.vtu                           |
|Paraview surface                   |surface_flow.vtu                   |
+-----------------------------------------------------------------------+

Writing the forces breakdown file (forces_breakdown.dat).
+-------------------------------------------------------------------------------------------------------+
|  Inner_Iter|   Time_Iter|    rms[Rho]|   rms[RhoU]|   rms[RhoV]|   rms[RhoE]|          CL|          CD|
+-------------------------------------------------------------------------------------------------------+
|         451|           0|   -2.746028|   -0.229419|   -0.231524|    2.701517|    0.511593|    0.013147|
|         452|           0|   -2.751708|   -0.235577|   -0.237064|    2.698312|    0.511553|    0.013147|
|         453|           0|   -2.756806|   -0.238774|   -0.241100|    2.694598|    0.511520|    0.013151|
|         454|           0|   -2.761141|   -0.238959|   -0.243550|    2.690481|    0.511486|    0.013156|
|         455|           0|   -2.764630|   -0.236328|   -0.244431|    2.686022|    0.511456|    0.013165|
|         456|           0|   -2.767303|   -0.231271|   -0.243843|    2.681204|    0.511426|    0.013174|
|         457|           0|   -2.769168|   -0.224295|   -0.241975|    2.676097|    0.511406|    0.013187|
|         458|           0|   -2.770400|   -0.216013|   -0.239086|    2.670613|    0.511386|    0.013200|
|         459|           0|   -2.770930|   -0.206982|   -0.235479|    2.665003|    0.511372|    0.013216|
|         460|           0|   -2.770935|   -0.197737|   -0.231451|    2.659286|    0.511359|    0.013232|
+-----------------------------------------------------------------------+
|        File Writing Summary       |              Filename             |
+-----------------------------------------------------------------------+
|SU2 restart                        |solution_flow.dat                  |
|Paraview                           |flow.vtu                           |
|Paraview surface                   |surface_flow.vtu                   |
+-----------------------------------------------------------------------+

Writing the forces breakdown file (forces_breakdown.dat).
+-------------------------------------------------------------------------------------------------------+
|  Inner_Iter|   Time_Iter|    rms[Rho]|   rms[RhoU]|   rms[RhoV]|   rms[RhoE]|          CL|          CD|
+-------------------------------------------------------------------------------------------------------+
|         461|           0|   -2.770569|   -0.188814|   -0.227314|    2.653527|    0.511354|    0.013250|
|         462|           0|   -2.769913|   -0.180605|   -0.223352|    2.647903|    0.511350|    0.013268|
|         463|           0|   -2.769122|   -0.173413|   -0.219816|    2.642504|    0.511352|    0.013289|
|         464|           0|   -2.768362|   -0.167477|   -0.216926|    2.637397|    0.511356|    0.013308|
|         465|           0|   -2.767570|   -0.163085|   -0.214862|    2.632895|    0.511366|    0.013329|
|         466|           0|   -2.767049|   -0.160268|   -0.213741|    2.628889|    0.511377|    0.013349|
|         467|           0|   -2.766912|   -0.159104|   -0.213700|    2.625429|    0.511394|    0.013370|
|         468|           0|   -2.767297|   -0.159701|   -0.214809|    2.622474|    0.511412|    0.013390|
|         469|           0|   -2.768167|   -0.162111|   -0.217106|    2.620182|    0.511437|    0.013411|
|         470|           0|   -2.769651|   -0.166361|   -0.220626|    2.618426|    0.511460|    0.013429|
+-----------------------------------------------------------------------+
|        File Writing Summary       |              Filename             |
+-----------------------------------------------------------------------+
|SU2 restart                        |solution_flow.dat                  |
|Paraview                           |flow.vtu                           |
|Paraview surface                   |surface_flow.vtu                   |
+-----------------------------------------------------------------------+

Writing the forces breakdown file (forces_breakdown.dat).
+-------------------------------------------------------------------------------------------------------+
|  Inner_Iter|   Time_Iter|    rms[Rho]|   rms[RhoU]|   rms[RhoV]|   rms[RhoE]|          CL|          CD|
+-------------------------------------------------------------------------------------------------------+
|         471|           0|   -2.771796|   -0.172457|   -0.225349|    2.617148|    0.511488|    0.013448|
|         472|           0|   -2.774607|   -0.180356|   -0.231259|    2.616310|    0.511516|    0.013465|
|         473|           0|   -2.778137|   -0.190018|   -0.238315|    2.615755|    0.511549|    0.013482|
|         474|           0|   -2.782393|   -0.201376|   -0.246409|    2.615368|    0.511580|    0.013496|
|         475|           0|   -2.787213|   -0.214299|   -0.255376|    2.615215|    0.511615|    0.013511|
|         476|           0|   -2.792671|   -0.228655|   -0.265044|    2.615007|    0.511647|    0.013523|
|         477|           0|   -2.798741|   -0.244216|   -0.275226|    2.614607|    0.511685|    0.013535|
|         478|           0|   -2.805235|   -0.260719|   -0.285678|    2.614032|    0.511719|    0.013544|
|         479|           0|   -2.812051|   -0.277778|   -0.296126|    2.613211|    0.511756|    0.013553|
|         480|           0|   -2.819112|   -0.294969|   -0.306251|    2.612002|    0.511789|    0.013559|
+-----------------------------------------------------------------------+
|        File Writing Summary       |              Filename             |
+-----------------------------------------------------------------------+
|SU2 restart                        |solution_flow.dat                  |
|Paraview                           |flow.vtu                           |
|Paraview surface                   |surface_flow.vtu                   |
+-----------------------------------------------------------------------+

Writing the forces breakdown file (forces_breakdown.dat).
+-------------------------------------------------------------------------------------------------------+
|  Inner_Iter|   Time_Iter|    rms[Rho]|   rms[RhoU]|   rms[RhoV]|   rms[RhoE]|          CL|          CD|
+-------------------------------------------------------------------------------------------------------+
|         481|           0|   -2.826168|   -0.311678|   -0.315727|    2.610488|    0.511825|    0.013565|
|         482|           0|   -2.833172|   -0.327234|   -0.324249|    2.608506|    0.511858|    0.013567|
|         483|           0|   -2.840019|   -0.340957|   -0.331504|    2.605975|    0.511891|    0.013570|
|         484|           0|   -2.846493|   -0.352132|   -0.337263|    2.602944|    0.511921|    0.013570|
|         485|           0|   -2.852569|   -0.360164|   -0.341355|    2.599278|    0.511953|    0.013569|
|         486|           0|   -2.858112|   -0.364681|   -0.343703|    2.595031|    0.511981|    0.013566|
|         487|           0|   -2.862822|   -0.365556|   -0.344376|    2.590439|    0.512009|    0.013563|
|         488|           0|   -2.866783|   -0.363063|   -0.343527|    2.585380|    0.512033|    0.013557|
|         489|           0|   -2.870029|   -0.357715|   -0.341381|    2.579844|    0.512059|    0.013552|
|         490|           0|   -2.872472|   -0.350153|   -0.338216|    2.573987|    0.512080|    0.013543|
+-----------------------------------------------------------------------+
|        File Writing Summary       |              Filename             |
+-----------------------------------------------------------------------+
|SU2 restart                        |solution_flow.dat                  |
|Paraview                           |flow.vtu                           |
|Paraview surface                   |surface_flow.vtu                   |
+-----------------------------------------------------------------------+

Writing the forces breakdown file (forces_breakdown.dat).
+-------------------------------------------------------------------------------------------------------+
|  Inner_Iter|   Time_Iter|    rms[Rho]|   rms[RhoU]|   rms[RhoV]|   rms[RhoE]|          CL|          CD|
+-------------------------------------------------------------------------------------------------------+
|         491|           0|   -2.874192|   -0.341077|   -0.334358|    2.567865|    0.512100|    0.013535|
|         492|           0|   -2.875237|   -0.331181|   -0.330146|    2.561607|    0.512116|    0.013525|
|         493|           0|   -2.875803|   -0.321131|   -0.325900|    2.555219|    0.512134|    0.013515|
|         494|           0|   -2.876089|   -0.311481|   -0.321925|    2.548712|    0.512147|    0.013503|
|         495|           0|   -2.875847|   -0.302604|   -0.318454|    2.542671|    0.512160|    0.013492|
|         496|           0|   -2.875474|   -0.294847|   -0.315717|    2.536909|    0.512169|    0.013479|
|         497|           0|   -2.875224|   -0.288511|   -0.313912|    2.531373|    0.512181|    0.013467|
|         498|           0|   -2.875113|   -0.283745|   -0.313169|    2.526293|    0.512186|    0.013453|
|         499|           0|   -2.875297|   -0.280707|   -0.313595|    2.521698|    0.512193|    0.013440|

----------------------------- Solver Exit -------------------------------

Maximum number of iterations reached (ITER = 500) before convergence.
+-----------------------------------------------------------------------+
|      Convergence Field     |     Value    |   Criterion  |  Converged |
+-----------------------------------------------------------------------+
|                  Cauchy[CD]|    0.00140004|       < 1e-10|          No|
+-----------------------------------------------------------------------+
-------------------------------------------------------------------------
+-----------------------------------------------------------------------+
|        File Writing Summary       |              Filename             |
+-----------------------------------------------------------------------+
|SU2 restart                        |solution_flow.dat                  |
|Paraview                           |flow.vtu                           |
|Paraview surface                   |surface_flow.vtu                   |
+-----------------------------------------------------------------------+

Writing the forces breakdown file (forces_breakdown.dat).

------------------------- Solver Postprocessing -------------------------
Deleted CNumerics container.
Deleted CIntegration container.
Deleted CSolver container.
Deleted CIteration container.
Deleted CInterpolator container.
Deleted CInterface container.
Deleted CGeometry container.
Deleted CFreeFormDefBox class.
Deleted CSurfaceMovement class.
Deleted CVolumetricMovement class.
Deleted CConfig container.
Deleted nInst container.
Deleted COutput class.
-------------------------------------------------------------------------

------------------------- Exit Success (SU2_CFD) ------------------------

