
-------------------------------------------------------------------------
|    ___ _   _ ___                                                      |
|   / __| | | |_  )   Release 7.0.3 "Blackbird"                       |
|   \__ \ |_| |/ /                                                    |
|   |___/\___//___|   Suite (Computational Fluid Dynamics Code)        |
|                                                                       |
-------------------------------------------------------------------------
| SU2 Project Website: https://su2code.github.io                        |
|                                                                       |
| The SU2 Project is maintained by the SU2 Foundation                   |
| (http://su2foundation.org)                                            |
-------------------------------------------------------------------------
| Copyright 2012-2020, SU2 Contributors                                 |
|                                                                       |
| SU2 is free software; you can redistribute it and/or                  |
| modify it under the terms of the GNU Lesser General Public            |
| License as published by the Free Software Foundation; either          |
| version 2.1 of the License, or (at your option) any later version.    |
|                                                                       |
| SU2 is distributed in the hope that it will be useful,                |
| but WITHOUT ANY WARRANTY; without even the implied warranty of        |
| MERCHANTABILITY or FITNESS FOR A PARTICULAR PURPOSE. See the GNU      |
| Lesser General Public License for more details.                       |
|                                                                       |
| You should have received a copy of the GNU Lesser General Public      |
| License along with SU2. If not, see <http://www.gnu.org/licenses/>.   |
-------------------------------------------------------------------------


Problem definition:

Compressible Euler equations.
Mach number: 0.3.
Angle of attack (AoA): 2 deg, and angle of sideslip (AoS): 0 deg.
Dimensional simulation.
The reference area is 55.7983 m^2.
The reference length is 1.8008 m.


Problem definition:

Inviscid flow: Computing density based on free-stream
temperature and pressure using the ideal gas law.
Force coefficients computed using free-stream values.
-- Input conditions:
Fluid Model: STANDARD_AIR 
Specific gas constant: 287.058 N.m/kg.K.
Specific gas constant (non-dim): 287.058
Specific Heat Ratio: 1.4000 
Free-stream static pressure: 101325 Pa.
Free-stream total pressure: 107853 Pa.
Free-stream temperature: 288.15 K.
Free-stream total temperature: 293.337 K.
Free-stream density: 1.22498 kg/m^3.
Free-stream velocity: (102.027, 0, 3.56286) m/s. Magnitude: 102.089 m/s.
Free-stream total energy per unit mass: 212000 m^2/s^2.
-- Reference values:
Reference specific gas constant: 1 N.m/kg.K.
Reference pressure: 1 Pa.
Reference temperature: 1 K.
Reference density: 1 kg/m^3.
Reference velocity: 1 m/s.
Reference energy per unit mass: 1 m^2/s^2.
-- Resulting non-dimensional state:
Mach number (non-dim): 0.3
Specific gas constant (non-dim): 287.058
Free-stream temperature (non-dim): 288.15
Free-stream pressure (non-dim): 101325
Free-stream density (non-dim): 1.22498
Free-stream velocity (non-dim): (102.027, 0, 3.56286). Magnitude: 102.089
Free-stream total energy per unit mass (non-dim): 212000


Forces breakdown:

Center of Pressure: X=-0.007688Z+9.983325 m.

NOTE: Multiply forces by the non-dimensional factor: 356187.053093, and the reference factor: 1.000000
to obtain the dimensional force.

Total CL:       0.504628 | Pressure (   99%):    0.504628 | Friction (    0%):    0.000000 | Momentum (    0%):    0.000000
Total CD:       0.013739 | Pressure (   99%):    0.013739 | Friction (    0%):    0.000000 | Momentum (    0%):    0.000000
Total CSF:      0.000225 | Pressure (   99%):    0.000225 | Friction (    0%):    0.000000 | Momentum (    0%):    0.000000
Total CL/CD:   36.730870 | Pressure (  100%):   36.730870 | Friction (    0%):    0.000000 | Momentum (    0%):    0.000000
Total CMx:      0.005441 | Pressure (   99%):    0.005441 | Friction (    0%):    0.000000 | Momentum (    0%):    0.000000
Total CMy:     -0.098782 | Pressure (  100%):   -0.098782 | Friction (    0%):    0.000000 | Momentum (    0%):    0.000000
Total CMz:      0.002648 | Pressure (   99%):    0.002648 | Friction (    0%):    0.000000 | Momentum (    0%):    0.000000
Total CFx:     -0.003881 | Pressure (  100%):   -0.003881 | Friction (    0%):    0.000000 | Momentum (    0%):    0.000000
Total CFy:      0.000225 | Pressure (   99%):    0.000225 | Friction (    0%):    0.000000 | Momentum (    0%):    0.000000
Total CFz:      0.504800 | Pressure (   99%):    0.504800 | Friction (    0%):    0.000000 | Momentum (    0%):    0.000000


Surface name: VTP

Total CL    (    0%):    0.000402 | Pressure (   99%):    0.000402 | Friction (    0%):    0.000000 | Momentum (    0%):    0.000000
Total CD    (    1%):    0.000211 | Pressure (   99%):    0.000211 | Friction (    0%):    0.000000 | Momentum (    0%):    0.000000
Total CSF   (  182%):    0.000410 | Pressure (   99%):    0.000410 | Friction (    0%):    0.000000 | Momentum (    0%):    0.000000
Total CL/CD (    5%):    1.906163 | Pressure (  100%):    1.906163 | Friction (    0%):    0.000000 | Momentum (    0%):    0.000000
Total CMx   (   -8%):   -0.000450 | Pressure (  100%):   -0.000450 | Friction (    0%):    0.000000 | Momentum (    0%):    0.000000
Total CMy   (    0%):   -0.000947 | Pressure (  100%):   -0.000947 | Friction (    0%):    0.000000 | Momentum (    0%):    0.000000
Total CMz   (   46%):    0.001222 | Pressure (   99%):    0.001222 | Friction (    0%):    0.000000 | Momentum (    0%):    0.000000
Total CFx   (   -5%):    0.000197 | Pressure (   99%):    0.000197 | Friction (    0%):    0.000000 | Momentum (    0%):    0.000000
Total CFy   (  182%):    0.000410 | Pressure (   99%):    0.000410 | Friction (    0%):    0.000000 | Momentum (    0%):    0.000000
Total CFz   (    0%):    0.000409 | Pressure (   99%):    0.000409 | Friction (    0%):    0.000000 | Momentum (    0%):    0.000000

Surface name: Fuselage

Total CL    (    6%):    0.032394 | Pressure (   99%):    0.032394 | Friction (    0%):    0.000000 | Momentum (    0%):    0.000000
Total CD    (   26%):    0.003587 | Pressure (   99%):    0.003587 | Friction (    0%):    0.000000 | Momentum (    0%):    0.000000
Total CSF   (  -96%):   -0.000217 | Pressure (  100%):   -0.000217 | Friction (    0%):    0.000000 | Momentum (    0%):    0.000000
Total CL/CD (   24%):    9.030881 | Pressure (  100%):    9.030881 | Friction (    0%):    0.000000 | Momentum (    0%):    0.000000
Total CMx   (    1%):    0.000096 | Pressure (   99%):    0.000096 | Friction (    0%):    0.000000 | Momentum (    0%):    0.000000
Total CMy   (  -17%):    0.017093 | Pressure (   99%):    0.017093 | Friction (    0%):    0.000000 | Momentum (    0%):    0.000000
Total CMz   (  -45%):   -0.001218 | Pressure (  100%):   -0.001218 | Friction (    0%):    0.000000 | Momentum (    0%):    0.000000
Total CFx   (  -63%):    0.002454 | Pressure (   99%):    0.002454 | Friction (    0%):    0.000000 | Momentum (    0%):    0.000000
Total CFy   (  -96%):   -0.000217 | Pressure (  100%):   -0.000217 | Friction (    0%):    0.000000 | Momentum (    0%):    0.000000
Total CFz   (    6%):    0.032500 | Pressure (   99%):    0.032500 | Friction (    0%):    0.000000 | Momentum (    0%):    0.000000

Surface name: HTP

Total CL    (   -5%):   -0.029245 | Pressure (  100%):   -0.029245 | Friction (    0%):    0.000000 | Momentum (    0%):    0.000000
Total CD    (   -5%):   -0.000821 | Pressure (  100%):   -0.000821 | Friction (    0%):    0.000000 | Momentum (    0%):    0.000000
Total CSF   (   -2%):   -0.000005 | Pressure (  100%):   -0.000005 | Friction (    0%):    0.000000 | Momentum (    0%):    0.000000
Total CL/CD (   96%):   35.614838 | Pressure (  100%):   35.614838 | Friction (    0%):    0.000000 | Momentum (    0%):    0.000000
Total CMx   (   -5%):   -0.000272 | Pressure (  100%):   -0.000272 | Friction (    0%):    0.000000 | Momentum (    0%):    0.000000
Total CMy   ( -100%):    0.099741 | Pressure (   99%):    0.099741 | Friction (    0%):    0.000000 | Momentum (    0%):    0.000000
Total CMz   (    0%):    0.000005 | Pressure (   99%):    0.000005 | Friction (    0%):    0.000000 | Momentum (    0%):    0.000000
Total CFx   (   -5%):    0.000200 | Pressure (   99%):    0.000200 | Friction (    0%):    0.000000 | Momentum (    0%):    0.000000
Total CFy   (   -2%):   -0.000005 | Pressure (  100%):   -0.000005 | Friction (    0%):    0.000000 | Momentum (    0%):    0.000000
Total CFz   (   -5%):   -0.029255 | Pressure (  100%):   -0.029255 | Friction (    0%):    0.000000 | Momentum (    0%):    0.000000

Surface name: Wing

Total CL    (   99%):    0.501076 | Pressure (   99%):    0.501076 | Friction (    0%):    0.000000 | Momentum (    0%):    0.000000
Total CD    (   78%):    0.010762 | Pressure (   99%):    0.010762 | Friction (    0%):    0.000000 | Momentum (    0%):    0.000000
Total CSF   (   16%):    0.000037 | Pressure (   99%):    0.000037 | Friction (    0%):    0.000000 | Momentum (    0%):    0.000000
Total CL/CD (  126%):   46.560083 | Pressure (   99%):   46.560083 | Friction (    0%):    0.000000 | Momentum (    0%):    0.000000
Total CMx   (  111%):    0.006068 | Pressure (   99%):    0.006068 | Friction (    0%):    0.000000 | Momentum (    0%):    0.000000
Total CMy   (  217%):   -0.214669 | Pressure (  100%):   -0.214669 | Friction (    0%):    0.000000 | Momentum (    0%):    0.000000
Total CMz   (   99%):    0.002639 | Pressure (   99%):    0.002639 | Friction (    0%):    0.000000 | Momentum (    0%):    0.000000
Total CFx   (  173%):   -0.006732 | Pressure (  100%):   -0.006732 | Friction (    0%):    0.000000 | Momentum (    0%):    0.000000
Total CFy   (   16%):    0.000037 | Pressure (   99%):    0.000037 | Friction (    0%):    0.000000 | Momentum (    0%):    0.000000
Total CFz   (   99%):    0.501147 | Pressure (   99%):    0.501147 | Friction (    0%):    0.000000 | Momentum (    0%):    0.000000

