
-------------------------------------------------------------------------
|    ___ _   _ ___                                                      |
|   / __| | | |_  )   Release 7.0.3 "Blackbird"                       |
|   \__ \ |_| |/ /                                                    |
|   |___/\___//___|   Suite (Computational Fluid Dynamics Code)        |
|                                                                       |
-------------------------------------------------------------------------
| SU2 Project Website: https://su2code.github.io                        |
|                                                                       |
| The SU2 Project is maintained by the SU2 Foundation                   |
| (http://su2foundation.org)                                            |
-------------------------------------------------------------------------
| Copyright 2012-2020, SU2 Contributors                                 |
|                                                                       |
| SU2 is free software; you can redistribute it and/or                  |
| modify it under the terms of the GNU Lesser General Public            |
| License as published by the Free Software Foundation; either          |
| version 2.1 of the License, or (at your option) any later version.    |
|                                                                       |
| SU2 is distributed in the hope that it will be useful,                |
| but WITHOUT ANY WARRANTY; without even the implied warranty of        |
| MERCHANTABILITY or FITNESS FOR A PARTICULAR PURPOSE. See the GNU      |
| Lesser General Public License for more details.                       |
|                                                                       |
| You should have received a copy of the GNU Lesser General Public      |
| License along with SU2. If not, see <http://www.gnu.org/licenses/>.   |
-------------------------------------------------------------------------


Problem definition:

Compressible Euler equations.
Mach number: 0.3.
Angle of attack (AoA): 2 deg, and angle of sideslip (AoS): 0 deg.
Dimensional simulation.
The reference area is 55.7983 m^2.
The reference length is 1.8008 m.


Problem definition:

Inviscid flow: Computing density based on free-stream
temperature and pressure using the ideal gas law.
Force coefficients computed using free-stream values.
-- Input conditions:
Fluid Model: STANDARD_AIR 
Specific gas constant: 287.058 N.m/kg.K.
Specific gas constant (non-dim): 287.058
Specific Heat Ratio: 1.4000 
Free-stream static pressure: 101325 Pa.
Free-stream total pressure: 107853 Pa.
Free-stream temperature: 288.15 K.
Free-stream total temperature: 293.337 K.
Free-stream density: 1.22498 kg/m^3.
Free-stream velocity: (102.027, 0, 3.56286) m/s. Magnitude: 102.089 m/s.
Free-stream total energy per unit mass: 212000 m^2/s^2.
-- Reference values:
Reference specific gas constant: 1 N.m/kg.K.
Reference pressure: 1 Pa.
Reference temperature: 1 K.
Reference density: 1 kg/m^3.
Reference velocity: 1 m/s.
Reference energy per unit mass: 1 m^2/s^2.
-- Resulting non-dimensional state:
Mach number (non-dim): 0.3
Specific gas constant (non-dim): 287.058
Free-stream temperature (non-dim): 288.15
Free-stream pressure (non-dim): 101325
Free-stream density (non-dim): 1.22498
Free-stream velocity (non-dim): (102.027, 0, 3.56286). Magnitude: 102.089
Free-stream total energy per unit mass (non-dim): 212000


Forces breakdown:

Center of Pressure: X=-0.273614Z+10.750345 m.

NOTE: Multiply forces by the non-dimensional factor: 356187.053093, and the reference factor: 1.000000
to obtain the dimensional force.

Total CL:       0.415455 | Pressure (   99%):    0.415455 | Friction (    0%):    0.000000 | Momentum (    0%):    0.000000
Total CD:      -0.098228 | Pressure (  100%):   -0.098228 | Friction (    0%):    0.000000 | Momentum (    0%):    0.000000
Total CSF:     -0.001508 | Pressure (  100%):   -0.001508 | Friction (    0%):    0.000000 | Momentum (    0%):    0.000000
Total CL/CD:   -4.229516 | Pressure (  100%):   -4.229516 | Friction (    0%):    0.000000 | Momentum (    0%):    0.000000
Total CMx:      0.009935 | Pressure (   99%):    0.009935 | Friction (    0%):    0.000000 | Momentum (    0%):    0.000000
Total CMy:     -0.102265 | Pressure (  100%):   -0.102265 | Friction (    0%):    0.000000 | Momentum (    0%):    0.000000
Total CMz:      0.007806 | Pressure (   99%):    0.007806 | Friction (    0%):    0.000000 | Momentum (    0%):    0.000000
Total CFx:     -0.112667 | Pressure (  100%):   -0.112667 | Friction (    0%):    0.000000 | Momentum (    0%):    0.000000
Total CFy:     -0.001508 | Pressure (  100%):   -0.001508 | Friction (    0%):    0.000000 | Momentum (    0%):    0.000000
Total CFz:      0.411774 | Pressure (   99%):    0.411774 | Friction (    0%):    0.000000 | Momentum (    0%):    0.000000


Surface name: VTP

Total CL    (    0%):    0.001962 | Pressure (   99%):    0.001962 | Friction (    0%):    0.000000 | Momentum (    0%):    0.000000
Total CD    (    1%):   -0.001648 | Pressure (  100%):   -0.001648 | Friction (    0%):    0.000000 | Momentum (    0%):    0.000000
Total CSF   (  -49%):    0.000753 | Pressure (   99%):    0.000753 | Friction (    0%):    0.000000 | Momentum (    0%):    0.000000
Total CL/CD (   28%):   -1.190335 | Pressure (  100%):   -1.190335 | Friction (    0%):    0.000000 | Momentum (    0%):    0.000000
Total CMx   (   -4%):   -0.000461 | Pressure (  100%):   -0.000461 | Friction (    0%):    0.000000 | Momentum (    0%):    0.000000
Total CMy   (    7%):   -0.007168 | Pressure (  100%):   -0.007168 | Friction (    0%):    0.000000 | Momentum (    0%):    0.000000
Total CMz   (   28%):    0.002205 | Pressure (   99%):    0.002205 | Friction (    0%):    0.000000 | Momentum (    0%):    0.000000
Total CFx   (    1%):   -0.001716 | Pressure (  100%):   -0.001716 | Friction (    0%):    0.000000 | Momentum (    0%):    0.000000
Total CFy   (  -49%):    0.000753 | Pressure (   99%):    0.000753 | Friction (    0%):    0.000000 | Momentum (    0%):    0.000000
Total CFz   (    0%):    0.001903 | Pressure (   99%):    0.001903 | Friction (    0%):    0.000000 | Momentum (    0%):    0.000000

Surface name: Fuselage

Total CL    (    4%):    0.020008 | Pressure (   99%):    0.020008 | Friction (    0%):    0.000000 | Momentum (    0%):    0.000000
Total CD    (   16%):   -0.015958 | Pressure (  100%):   -0.015958 | Friction (    0%):    0.000000 | Momentum (    0%):    0.000000
Total CSF   (  122%):   -0.001853 | Pressure (  100%):   -0.001853 | Friction (    0%):    0.000000 | Momentum (    0%):    0.000000
Total CL/CD (   29%):   -1.253758 | Pressure (  100%):   -1.253758 | Friction (    0%):    0.000000 | Momentum (    0%):    0.000000
Total CMx   (    4%):    0.000489 | Pressure (   99%):    0.000489 | Friction (    0%):    0.000000 | Momentum (    0%):    0.000000
Total CMy   (    1%):   -0.001588 | Pressure (  100%):   -0.001588 | Friction (    0%):    0.000000 | Momentum (    0%):    0.000000
Total CMz   (   27%):    0.002163 | Pressure (   99%):    0.002163 | Friction (    0%):    0.000000 | Momentum (    0%):    0.000000
Total CFx   (   14%):   -0.016647 | Pressure (  100%):   -0.016647 | Friction (    0%):    0.000000 | Momentum (    0%):    0.000000
Total CFy   (  122%):   -0.001853 | Pressure (  100%):   -0.001853 | Friction (    0%):    0.000000 | Momentum (    0%):    0.000000
Total CFz   (    4%):    0.019439 | Pressure (   99%):    0.019439 | Friction (    0%):    0.000000 | Momentum (    0%):    0.000000

Surface name: HTP

Total CL    (   -4%):   -0.018984 | Pressure (  100%):   -0.018984 | Friction (    0%):    0.000000 | Momentum (    0%):    0.000000
Total CD    (    6%):   -0.006622 | Pressure (  100%):   -0.006622 | Friction (    0%):    0.000000 | Momentum (    0%):    0.000000
Total CSF   (    0%):   -0.000006 | Pressure (  100%):   -0.000006 | Friction (    0%):    0.000000 | Momentum (    0%):    0.000000
Total CL/CD (  -67%):    2.866662 | Pressure (  100%):    2.866662 | Friction (    0%):    0.000000 | Momentum (    0%):    0.000000
Total CMx   (    0%):    0.000035 | Pressure (   99%):    0.000035 | Friction (    0%):    0.000000 | Momentum (    0%):    0.000000
Total CMy   (  -52%):    0.053669 | Pressure (   99%):    0.053669 | Friction (    0%):    0.000000 | Momentum (    0%):    0.000000
Total CMz   (    0%):   -0.000023 | Pressure (  100%):   -0.000023 | Friction (    0%):    0.000000 | Momentum (    0%):    0.000000
Total CFx   (    5%):   -0.005956 | Pressure (  100%):   -0.005956 | Friction (    0%):    0.000000 | Momentum (    0%):    0.000000
Total CFy   (    0%):   -0.000006 | Pressure (  100%):   -0.000006 | Friction (    0%):    0.000000 | Momentum (    0%):    0.000000
Total CFz   (   -4%):   -0.019204 | Pressure (  100%):   -0.019204 | Friction (    0%):    0.000000 | Momentum (    0%):    0.000000

Surface name: Wing

Total CL    (   99%):    0.412469 | Pressure (   99%):    0.412469 | Friction (    0%):    0.000000 | Momentum (    0%):    0.000000
Total CD    (   75%):   -0.073998 | Pressure (  100%):   -0.073998 | Friction (    0%):    0.000000 | Momentum (    0%):    0.000000
Total CSF   (   26%):   -0.000402 | Pressure (  100%):   -0.000402 | Friction (    0%):    0.000000 | Momentum (    0%):    0.000000
Total CL/CD (  131%):   -5.574035 | Pressure (  100%):   -5.574035 | Friction (    0%):    0.000000 | Momentum (    0%):    0.000000
Total CMx   (   99%):    0.009872 | Pressure (   99%):    0.009872 | Friction (    0%):    0.000000 | Momentum (    0%):    0.000000
Total CMy   (  143%):   -0.147177 | Pressure (  100%):   -0.147177 | Friction (    0%):    0.000000 | Momentum (    0%):    0.000000
Total CMz   (   44%):    0.003462 | Pressure (   99%):    0.003462 | Friction (    0%):    0.000000 | Momentum (    0%):    0.000000
Total CFx   (   78%):   -0.088348 | Pressure (  100%):   -0.088348 | Friction (    0%):    0.000000 | Momentum (    0%):    0.000000
Total CFy   (   26%):   -0.000402 | Pressure (  100%):   -0.000402 | Friction (    0%):    0.000000 | Momentum (    0%):    0.000000
Total CFz   (   99%):    0.409636 | Pressure (   99%):    0.409636 | Friction (    0%):    0.000000 | Momentum (    0%):    0.000000

