
-------------------------------------------------------------------------
|    ___ _   _ ___                                                      |
|   / __| | | |_  )   Release 7.0.3 "Blackbird"                       |
|   \__ \ |_| |/ /                                                    |
|   |___/\___//___|   Suite (Computational Fluid Dynamics Code)        |
|                                                                       |
-------------------------------------------------------------------------
| SU2 Project Website: https://su2code.github.io                        |
|                                                                       |
| The SU2 Project is maintained by the SU2 Foundation                   |
| (http://su2foundation.org)                                            |
-------------------------------------------------------------------------
| Copyright 2012-2020, SU2 Contributors                                 |
|                                                                       |
| SU2 is free software; you can redistribute it and/or                  |
| modify it under the terms of the GNU Lesser General Public            |
| License as published by the Free Software Foundation; either          |
| version 2.1 of the License, or (at your option) any later version.    |
|                                                                       |
| SU2 is distributed in the hope that it will be useful,                |
| but WITHOUT ANY WARRANTY; without even the implied warranty of        |
| MERCHANTABILITY or FITNESS FOR A PARTICULAR PURPOSE. See the GNU      |
| Lesser General Public License for more details.                       |
|                                                                       |
| You should have received a copy of the GNU Lesser General Public      |
| License along with SU2. If not, see <http://www.gnu.org/licenses/>.   |
-------------------------------------------------------------------------


Problem definition:

Compressible Euler equations.
Mach number: 0.3.
Angle of attack (AoA): 2 deg, and angle of sideslip (AoS): 0 deg.
Dimensional simulation.
The reference area is 55.7983 m^2.
The reference length is 1.8008 m.


Problem definition:

Inviscid flow: Computing density based on free-stream
temperature and pressure using the ideal gas law.
Force coefficients computed using free-stream values.
-- Input conditions:
Fluid Model: STANDARD_AIR 
Specific gas constant: 287.058 N.m/kg.K.
Specific gas constant (non-dim): 287.058
Specific Heat Ratio: 1.4000 
Free-stream static pressure: 101325 Pa.
Free-stream total pressure: 107853 Pa.
Free-stream temperature: 288.15 K.
Free-stream total temperature: 293.337 K.
Free-stream density: 1.22498 kg/m^3.
Free-stream velocity: (102.027, 0, 3.56286) m/s. Magnitude: 102.089 m/s.
Free-stream total energy per unit mass: 212000 m^2/s^2.
-- Reference values:
Reference specific gas constant: 1 N.m/kg.K.
Reference pressure: 1 Pa.
Reference temperature: 1 K.
Reference density: 1 kg/m^3.
Reference velocity: 1 m/s.
Reference energy per unit mass: 1 m^2/s^2.
-- Resulting non-dimensional state:
Mach number (non-dim): 0.3
Specific gas constant (non-dim): 287.058
Free-stream temperature (non-dim): 288.15
Free-stream pressure (non-dim): 101325
Free-stream density (non-dim): 1.22498
Free-stream velocity (non-dim): (102.027, 0, 3.56286). Magnitude: 102.089
Free-stream total energy per unit mass (non-dim): 212000


Forces breakdown:

Center of Pressure: X=1.580320Z+6.024349 m.

NOTE: Multiply forces by the non-dimensional factor: 356187.053093, and the reference factor: 1.000000
to obtain the dimensional force.

Total CL:       0.417214 | Pressure (   99%):    0.417214 | Friction (    0%):    0.000000 | Momentum (    0%):    0.000000
Total CD:       0.713263 | Pressure (   99%):    0.713263 | Friction (    0%):    0.000000 | Momentum (    0%):    0.000000
Total CSF:     -0.001780 | Pressure (  100%):   -0.001780 | Friction (    0%):    0.000000 | Momentum (    0%):    0.000000
Total CL/CD:    0.584937 | Pressure (   99%):    0.584937 | Friction (    0%):    0.000000 | Momentum (    0%):    0.000000
Total CMx:     -0.024587 | Pressure (  100%):   -0.024587 | Friction (    0%):    0.000000 | Momentum (    0%):    0.000000
Total CMy:     -0.099967 | Pressure (  100%):   -0.099967 | Friction (    0%):    0.000000 | Momentum (    0%):    0.000000
Total CMz:     -0.004852 | Pressure (  100%):   -0.004852 | Friction (    0%):    0.000000 | Momentum (    0%):    0.000000
Total CFx:      0.698268 | Pressure (  100%):    0.698268 | Friction (    0%):    0.000000 | Momentum (    0%):    0.000000
Total CFy:     -0.001780 | Pressure (  100%):   -0.001780 | Friction (    0%):    0.000000 | Momentum (    0%):    0.000000
Total CFz:      0.441852 | Pressure (   99%):    0.441852 | Friction (    0%):    0.000000 | Momentum (    0%):    0.000000


Surface name: VTP

Total CL    (   -2%):   -0.009657 | Pressure (  100%):   -0.009657 | Friction (    0%):    0.000000 | Momentum (    0%):    0.000000
Total CD    (    2%):    0.014976 | Pressure (   99%):    0.014976 | Friction (    0%):    0.000000 | Momentum (    0%):    0.000000
Total CSF   (   67%):   -0.001193 | Pressure (  100%):   -0.001193 | Friction (    0%):    0.000000 | Momentum (    0%):    0.000000
Total CL/CD ( -110%):   -0.644824 | Pressure (  100%):   -0.644824 | Friction (    0%):    0.000000 | Momentum (    0%):    0.000000
Total CMx   (   -5%):    0.001403 | Pressure (   99%):    0.001403 | Friction (    0%):    0.000000 | Momentum (    0%):    0.000000
Total CMy   (  -41%):    0.041823 | Pressure (   99%):    0.041823 | Friction (    0%):    0.000000 | Momentum (    0%):    0.000000
Total CMz   (   74%):   -0.003618 | Pressure (  100%):   -0.003618 | Friction (    0%):    0.000000 | Momentum (    0%):    0.000000
Total CFx   (    2%):    0.015304 | Pressure (   99%):    0.015304 | Friction (    0%):    0.000000 | Momentum (    0%):    0.000000
Total CFy   (   67%):   -0.001193 | Pressure (  100%):   -0.001193 | Friction (    0%):    0.000000 | Momentum (    0%):    0.000000
Total CFz   (   -2%):   -0.009128 | Pressure (  100%):   -0.009128 | Friction (    0%):    0.000000 | Momentum (    0%):    0.000000

Surface name: Fuselage

Total CL    (   18%):    0.077260 | Pressure (   99%):    0.077260 | Friction (    0%):    0.000000 | Momentum (    0%):    0.000000
Total CD    (   17%):    0.123901 | Pressure (   99%):    0.123901 | Friction (    0%):    0.000000 | Momentum (    0%):    0.000000
Total CSF   (   34%):   -0.000609 | Pressure (  100%):   -0.000609 | Friction (    0%):    0.000000 | Momentum (    0%):    0.000000
Total CL/CD (  106%):    0.623558 | Pressure (   99%):    0.623558 | Friction (    0%):    0.000000 | Momentum (    0%):    0.000000
Total CMx   (    0%):    0.000221 | Pressure (   99%):    0.000221 | Friction (    0%):    0.000000 | Momentum (    0%):    0.000000
Total CMy   ( -135%):    0.135631 | Pressure (   99%):    0.135631 | Friction (    0%):    0.000000 | Momentum (    0%):    0.000000
Total CMz   (  -10%):    0.000492 | Pressure (   99%):    0.000492 | Friction (    0%):    0.000000 | Momentum (    0%):    0.000000
Total CFx   (   17%):    0.121129 | Pressure (   99%):    0.121129 | Friction (    0%):    0.000000 | Momentum (    0%):    0.000000
Total CFy   (   34%):   -0.000609 | Pressure (  100%):   -0.000609 | Friction (    0%):    0.000000 | Momentum (    0%):    0.000000
Total CFz   (   18%):    0.081537 | Pressure (   99%):    0.081537 | Friction (    0%):    0.000000 | Momentum (    0%):    0.000000

Surface name: HTP

Total CL    (   -6%):   -0.027465 | Pressure (  100%):   -0.027465 | Friction (    0%):    0.000000 | Momentum (    0%):    0.000000
Total CD    (    3%):    0.025099 | Pressure (   99%):    0.025099 | Friction (    0%):    0.000000 | Momentum (    0%):    0.000000
Total CSF   (    2%):   -0.000052 | Pressure (  100%):   -0.000052 | Friction (    0%):    0.000000 | Momentum (    0%):    0.000000
Total CL/CD ( -187%):   -1.094304 | Pressure (  100%):   -1.094304 | Friction (    0%):    0.000000 | Momentum (    0%):    0.000000
Total CMx   (    0%):   -0.000174 | Pressure (  100%):   -0.000174 | Friction (    0%):    0.000000 | Momentum (    0%):    0.000000
Total CMy   ( -138%):    0.138644 | Pressure (   99%):    0.138644 | Friction (    0%):    0.000000 | Momentum (    0%):    0.000000
Total CMz   (    4%):   -0.000211 | Pressure (  100%):   -0.000211 | Friction (    0%):    0.000000 | Momentum (    0%):    0.000000
Total CFx   (    3%):    0.026042 | Pressure (   99%):    0.026042 | Friction (    0%):    0.000000 | Momentum (    0%):    0.000000
Total CFy   (    2%):   -0.000052 | Pressure (  100%):   -0.000052 | Friction (    0%):    0.000000 | Momentum (    0%):    0.000000
Total CFz   (   -6%):   -0.026573 | Pressure (  100%):   -0.026573 | Friction (    0%):    0.000000 | Momentum (    0%):    0.000000

Surface name: Wing

Total CL    (   90%):    0.377076 | Pressure (   99%):    0.377076 | Friction (    0%):    0.000000 | Momentum (    0%):    0.000000
Total CD    (   77%):    0.549287 | Pressure (   99%):    0.549287 | Friction (    0%):    0.000000 | Momentum (    0%):    0.000000
Total CSF   (   -4%):    0.000074 | Pressure (   99%):    0.000074 | Friction (    0%):    0.000000 | Momentum (    0%):    0.000000
Total CL/CD (  117%):    0.686482 | Pressure (   99%):    0.686482 | Friction (    0%):    0.000000 | Momentum (    0%):    0.000000
Total CMx   (  105%):   -0.026037 | Pressure (  100%):   -0.026037 | Friction (    0%):    0.000000 | Momentum (    0%):    0.000000
Total CMy   (  416%):   -0.416065 | Pressure (  100%):   -0.416065 | Friction (    0%):    0.000000 | Momentum (    0%):    0.000000
Total CMz   (   31%):   -0.001515 | Pressure (  100%):   -0.001515 | Friction (    0%):    0.000000 | Momentum (    0%):    0.000000
Total CFx   (   76%):    0.535793 | Pressure (   99%):    0.535793 | Friction (    0%):    0.000000 | Momentum (    0%):    0.000000
Total CFy   (   -4%):    0.000074 | Pressure (   99%):    0.000074 | Friction (    0%):    0.000000 | Momentum (    0%):    0.000000
Total CFz   (   89%):    0.396016 | Pressure (   99%):    0.396016 | Friction (    0%):    0.000000 | Momentum (    0%):    0.000000

