
-------------------------------------------------------------------------
|    ___ _   _ ___                                                      |
|   / __| | | |_  )   Release 7.0.3 "Blackbird"                         |
|   \__ \ |_| |/ /                                                      |
|   |___/\___//___|   Suite (Computational Fluid Dynamics Code)         |
|                                                                       |
-------------------------------------------------------------------------
| SU2 Project Website: https://su2code.github.io                        |
|                                                                       |
| The SU2 Project is maintained by the SU2 Foundation                   |
| (http://su2foundation.org)                                            |
-------------------------------------------------------------------------
| Copyright 2012-2020, SU2 Contributors                                 |
|                                                                       |
| SU2 is free software; you can redistribute it and/or                  |
| modify it under the terms of the GNU Lesser General Public            |
| License as published by the Free Software Foundation; either          |
| version 2.1 of the License, or (at your option) any later version.    |
|                                                                       |
| SU2 is distributed in the hope that it will be useful,                |
| but WITHOUT ANY WARRANTY; without even the implied warranty of        |
| MERCHANTABILITY or FITNESS FOR A PARTICULAR PURPOSE. See the GNU      |
| Lesser General Public License for more details.                       |
|                                                                       |
| You should have received a copy of the GNU Lesser General Public      |
| License along with SU2. If not, see <http://www.gnu.org/licenses/>.   |
-------------------------------------------------------------------------

Parsing config file for zone 0

----------------- Physical Case Definition ( Zone 0 ) -------------------
Compressible Euler equations.
Mach number: 0.3.
Angle of attack (AoA): 2 deg, and angle of sideslip (AoS): 0 deg.
No restart solution, use the values at infinity (freestream).
Dimensional simulation.
The reference area is 55.7983 m^2.
The semi-span will be computed using the max y(3D) value.
The reference length is 1.8008 m.
Surface(s) where the force coefficients are evaluated and 
their reference origin for moment computation: 
   - VTP (9.6115, 0, 2.5277).
   - Fuselage (9.6115, 0, 2.5277).
   - HTP (9.6115, 0, 2.5277).
   - Wing (9.6115, 0, 2.5277) m.
Surface(s) where the objective function is evaluated: airfoil.
Surface(s) plotted in the output file: VTP, Fuselage, HTP, Wing.
Surface(s) to be analyzed in detail: airfoil.
Surface(s) affected by the design variables: VTP, Fuselage, HTP, Wing.
Input mesh file name: /home/cfse2/Documents/aeroframe_2/test/static/8_Optimale_withDLR/CFD/MESH/OptimaleBL3_baseline.su2

--------------- Space Numerical Integration ( Zone 0 ) ------------------
Roe (with entropy fix = 0) solver for the flow inviscid terms.
Roe with DDES's FD low-dissipation function.
Second order integration in space, with slope limiter.
Venkatakrishnan slope-limiting method, with constant: 0.05. 
The reference element size is: 1. 
Gradient for upwind reconstruction: Green-Gauss.
Gradient for viscous and source terms: Green-Gauss.

--------------- Time Numerical Integration  ( Zone 0 ) ------------------
Local time stepping (steady state simulation).
Euler implicit method for the flow equations.
FGMRES is used for solving the linear system.
Using a ILU(0) preconditioning.
Convergence criteria of the linear solver: 1e-06.
Max number of linear iterations: 5.
V Multigrid Cycle, with 3 multigrid levels.
Damping factor for the residual restriction: 0.75.
Damping factor for the correction prolongation: 0.75.
No CFL adaptation.
+-------------------------------------------+
|  MG Level| Presmooth|PostSmooth|CorrectSmo|
+-------------------------------------------+
|         0|         1|         0|         0|
|         1|         2|         0|         0|
|         2|         3|         0|         0|
|         3|         3|         0|         0|
+-------------------------------------------+
Courant-Friedrichs-Lewy number:        1

------------------ Convergence Criteria  ( Zone 0 ) ---------------------
Maximum number of solver subiterations: 25.
Begin convergence monitoring at iteration 10.
Residual minimum value: 1e-8.
Cauchy series min. value: 1e-10.
Number of Cauchy elements: 100.
Begin windowed time average at iteration 15.

-------------------- Output Information ( Zone 0 ) ----------------------
Writing solution files every 10 iterations.
Writing the convergence history file every 1 inner iterations.
Writing the screen convergence history every 1 inner iterations.
The tabular file format is Tecplot (.dat).
Convergence history file name: history.
Forces breakdown file name: forces_breakdown.dat.
Surface file name: surface_flow.
Volume file name: flow.
Restart file name: restart_flow.dat.

------------- Config File Boundary Information ( Zone 0 ) ---------------
+-----------------------------------------------------------------------+
|                        Marker Type|                        Marker Name|
+-----------------------------------------------------------------------+
|                         Euler wall|                                VTP|
|                                   |                           Fuselage|
|                                   |                                HTP|
|                                   |                               Wing|
+-----------------------------------------------------------------------+
|                          Far-field|                           Farfield|
+-----------------------------------------------------------------------+
|                     Symmetry plane|                                  0|
+-----------------------------------------------------------------------+
|           Deformable mesh boundary|                            airfoil|
+-----------------------------------------------------------------------+

-------------------- Output Preprocessing ( Zone 0 ) --------------------
Screen output fields: INNER_ITER, TIME_ITER, RMS_DENSITY, RMS_MOMENTUM-X, RMS_MOMENTUM-Y, RMS_ENERGY, LIFT, DRAG
  Info: Ignoring the following history output groups:
  TIME_ITER
History output group(s): ITER, RMS_RES, AERO_COEFF
Warning: No (valid) fields chosen for convergence monitoring. Convergence monitoring inactive.
Warning: No (valid) fields chosen for time convergence monitoring. Time convergence monitoring inactive.
Volume output fields: COORDINATES, SOLUTION, PRIMITIVE

------------------- Geometry Preprocessing ( Zone 0 ) -------------------
Three dimensional problem.
134403 grid points before partitioning.
750945 volume elements before partitioning.
5 surface markers.
2298 boundary elements in index 0 (Marker = VTP).
6838 boundary elements in index 1 (Marker = Fuselage).
9046 boundary elements in index 2 (Marker = HTP).
42568 boundary elements in index 3 (Marker = Wing).
1280 boundary elements in index 4 (Marker = Farfield).
Executing the partitioning functions.
Building the graph adjacency structure.
Calling ParMETIS... graph partitioning complete (5060 edge cuts).
Distributing ParMETIS coloring.
Rebalancing vertices.
Rebalancing volume element connectivity.
Rebalancing markers and surface elements.
137162 vertices including ghost points. 
758572 interior elements including halo cells. 
758572 tetrahedra.
Establishing MPI communication patterns.
Setting point connectivity.
Renumbering points (Reverse Cuthill McKee Ordering).
Recomputing point connectivity.
Setting element connectivity.
Checking the numerical grid orientation.
Identifying edges and vertices.
Computing centers of gravity.
Setting the control volume structure.
Volume of the computational grid: 5.51554e+06.
Searching for the closest normal neighbors to the surfaces.
Storing a mapping from global to local point index.
Compute the surface curvature.
Max K: 921.232. Mean K: 42.1052. Standard deviation K: 86.2845.
Checking for periodicity.
Computing mesh quality statistics for the dual control volumes.
+--------------------------------------------------------------+
|           Mesh Quality Metric|        Minimum|        Maximum|
+--------------------------------------------------------------+
|    Orthogonality Angle (deg.)|        39.6346|        83.8792|
|     CV Face Area Aspect Ratio|        1.23968|         323.68|
|           CV Sub-Volume Ratio|        1.03396|        2980.59|
+--------------------------------------------------------------+
Setting the multigrid structure.
+-------------------------------------------+
|  MG Level|       CVs|Aggl. Rate|       CFL|
+-------------------------------------------+
|         0|    137162|    1/1.00|         1|
|         1|     22684|    1/6.05|  0.823354|
|         2|      3921|    1/5.79|  0.687971|
|         3|      1090|     1/3.6|  0.673501|
+-------------------------------------------+
Finding max control volume width.
Communicating number of neighbors.
Semi-span length = 16.2024 m.
Wetted area = 186.26 m^2.
Area projection in the x-plane = 11.6871 m^2, y-plane = 22.4784 m^2, z-plane = 75.1009 m^2.
Max. coordinate in the x-direction = 16.6548 m, y-direction = 16.2024 m, z-direction = 5.45855 m.
Min. coordinate in the x-direction = 2.5 m, y-direction = -16.2024 m, z-direction = 2.26009 m.
Checking if Euler & Symmetry markers are straight/plane:
Boundary marker VTP is NOT a single plane.
Boundary marker Fuselage is NOT a single plane.
Boundary marker HTP is NOT a single plane.
Boundary marker Wing is NOT a single plane.
Boundary marker 0 is a single plane.

-------------------- Solver Preprocessing ( Zone 0 ) --------------------
Inviscid flow: Computing density based on free-stream
temperature and pressure using the ideal gas law.
Force coefficients computed using free-stream values.

-- Models:
+------------------------------------------------------------------------------+
|          Viscosity Model|        Conductivity Model|              Fluid Model|
+------------------------------------------------------------------------------+
|                        -|                         -|             STANDARD_AIR|
+------------------------------------------------------------------------------+
-- Fluid properties:
+------------------------------------------------------------------------------+
|                  Name|    Dim. value|    Ref. value|      Unit|Non-dim. value|
+------------------------------------------------------------------------------+
|          Gas Constant|       287.058|             1|  N.m/kg.K|       287.058|
|      Spec. Heat Ratio|             -|             -|         -|           1.4|
+------------------------------------------------------------------------------+
-- Initial and free-stream conditions:
+------------------------------------------------------------------------------+
|                  Name|    Dim. value|    Ref. value|      Unit|Non-dim. value|
+------------------------------------------------------------------------------+
|       Static Pressure|        101325|             1|        Pa|        101325|
|               Density|       1.22498|             1|    kg/m^3|       1.22498|
|           Temperature|        288.15|             1|         K|        288.15|
|          Total Energy|        212000|             1|   m^2/s^2|        212000|
|            Velocity-X|       102.027|             1|       m/s|       102.027|
|            Velocity-Y|             0|             1|       m/s|             0|
|            Velocity-Z|       3.56286|             1|       m/s|       3.56286|
|    Velocity Magnitude|       102.089|             1|       m/s|       102.089|
+------------------------------------------------------------------------------+
|           Mach Number|             -|             -|         -|           0.3|
+------------------------------------------------------------------------------+
Initialize Jacobian structure (Euler). MG level: 0.
Initialize Jacobian structure (Euler). MG level: 1.
Initialize Jacobian structure (Euler). MG level: 2.
Initialize Jacobian structure (Euler). MG level: 3.

------------------- Numerics Preprocessing ( Zone 0 ) -------------------

----------------- Integration Preprocessing ( Zone 0 ) ------------------

------------------- Iteration Preprocessing ( Zone 0 ) ------------------
Euler/Navier-Stokes/RANS fluid iteration.

------------------------------ Begin Solver -----------------------------

Simulation Run using the Single-zone Driver
+-------------------------------------------------------------------------------------------------------+
|  Inner_Iter|   Time_Iter|    rms[Rho]|   rms[RhoU]|   rms[RhoV]|   rms[RhoE]|          CL|          CD|
+-------------------------------------------------------------------------------------------------------+
|           0|           0|   -1.131418|    1.022781|    1.033606|    4.337986|    0.153963|    0.292405|
|           1|           0|   -1.224489|    0.975849|    0.963982|    4.246715|    0.265630|    0.497691|
|           2|           0|   -1.226392|    1.057016|    1.002208|    4.246565|    0.341230|    0.627571|
|           3|           0|   -1.197136|    1.145910|    1.068533|    4.276363|    0.389099|    0.695199|
|           4|           0|   -1.169204|    1.220688|    1.128312|    4.304377|    0.417214|    0.713263|
|           5|           0|   -1.148931|    1.283627|    1.176627|    4.324654|    0.432317|    0.693692|
|           6|           0|   -1.134825|    1.337844|    1.215591|    4.338658|    0.439757|    0.647145|
|           7|           0|   -1.124072|    1.385155|    1.247875|    4.349068|    0.443431|    0.582750|
|           8|           0|   -1.114475|    1.426606|    1.275855|    4.357956|    0.445892|    0.508104|
|           9|           0|   -1.105164|    1.462684|    1.301211|    4.366116|    0.448660|    0.429335|
|          10|           0|   -1.095988|    1.493906|    1.325039|    4.373687|    0.452442|    0.351139|
+-----------------------------------------------------------------------+
|        File Writing Summary       |              Filename             |
+-----------------------------------------------------------------------+
|SU2 restart                        |restart_flow.dat                   |
|Paraview                           |flow.vtu                           |
|Paraview surface                   |surface_flow.vtu                   |
+-----------------------------------------------------------------------+

Writing the forces breakdown file (forces_breakdown.dat).
+-------------------------------------------------------------------------------------------------------+
|  Inner_Iter|   Time_Iter|    rms[Rho]|   rms[RhoU]|   rms[RhoV]|   rms[RhoE]|          CL|          CD|
+-------------------------------------------------------------------------------------------------------+
|          11|           0|   -1.087337|    1.520629|    1.348099|    4.380315|    0.457368|    0.276878|
|          12|           0|   -1.079903|    1.543245|    1.370378|    4.385336|    0.463168|    0.208752|
|          13|           0|   -1.074058|    1.561979|    1.391418|    4.388475|    0.469336|    0.148035|
|          14|           0|   -1.069947|    1.576928|    1.410751|    4.389689|    0.475254|    0.095268|
|          15|           0|   -1.067107|    1.588293|    1.427654|    4.389632|    0.480209|    0.050417|
|          16|           0|   -1.064759|    1.595974|    1.441448|    4.389367|    0.483574|    0.013069|
|          17|           0|   -1.061693|    1.599901|    1.451531|    4.390406|    0.484802|   -0.017416|
|          18|           0|   -1.056368|    1.600215|    1.457614|    4.394670|    0.483457|   -0.041774|
|          19|           0|   -1.047904|    1.596887|    1.459726|    4.403308|    0.479243|   -0.060759|
|          20|           0|   -1.036493|    1.590131|    1.457894|    4.416033|    0.472017|   -0.075102|
+-----------------------------------------------------------------------+
|        File Writing Summary       |              Filename             |
+-----------------------------------------------------------------------+
|SU2 restart                        |restart_flow.dat                   |
|Paraview                           |flow.vtu                           |
|Paraview surface                   |surface_flow.vtu                   |
+-----------------------------------------------------------------------+

Writing the forces breakdown file (forces_breakdown.dat).
+-------------------------------------------------------------------------------------------------------+
|  Inner_Iter|   Time_Iter|    rms[Rho]|   rms[RhoU]|   rms[RhoV]|   rms[RhoE]|          CL|          CD|
+-------------------------------------------------------------------------------------------------------+
|          21|           0|   -1.022720|    1.579916|    1.452631|    4.431925|    0.461791|   -0.085467|
|          22|           0|   -1.007764|    1.566430|    1.444850|    4.449346|    0.448715|   -0.092449|
|          23|           0|   -0.993181|    1.550240|    1.435907|    4.466329|    0.433121|   -0.096561|
|          24|           0|   -0.980315|    1.531853|    1.427283|    4.481164|    0.415455|   -0.098228|

----------------------------- Solver Exit -------------------------------

Maximum number of iterations reached (ITER = 25) before convergence.
+-----------------------------------------------------------------------+
|      Convergence Field     |     Value    |   Criterion  |  Converged |
+-----------------------------------------------------------------------+
|                  Cauchy[CD]|     0.0990495|       < 1e-10|          No|
+-----------------------------------------------------------------------+
-------------------------------------------------------------------------
+-----------------------------------------------------------------------+
|        File Writing Summary       |              Filename             |
+-----------------------------------------------------------------------+
|SU2 restart                        |restart_flow.dat                   |
|Paraview                           |flow.vtu                           |
|Paraview surface                   |surface_flow.vtu                   |
+-----------------------------------------------------------------------+

Writing the forces breakdown file (forces_breakdown.dat).

------------------------- Solver Postprocessing -------------------------
Deleted CNumerics container.
Deleted CIntegration container.
Deleted CSolver container.
Deleted CIteration container.
Deleted CInterpolator container.
Deleted CInterface container.
Deleted CGeometry container.
Deleted CFreeFormDefBox class.
Deleted CSurfaceMovement class.
Deleted CVolumetricMovement class.
Deleted CConfig container.
Deleted nInst container.
Deleted COutput class.
-------------------------------------------------------------------------

------------------------- Exit Success (SU2_CFD) ------------------------

