
-------------------------------------------------------------------------
|    ___ _   _ ___                                                      |
|   / __| | | |_  )   Release 7.0.3 "Blackbird"                         |
|   \__ \ |_| |/ /                                                      |
|   |___/\___//___|   Suite (Computational Fluid Dynamics Code)         |
|                                                                       |
-------------------------------------------------------------------------
| SU2 Project Website: https://su2code.github.io                        |
|                                                                       |
| The SU2 Project is maintained by the SU2 Foundation                   |
| (http://su2foundation.org)                                            |
-------------------------------------------------------------------------
| Copyright 2012-2020, SU2 Contributors                                 |
|                                                                       |
| SU2 is free software; you can redistribute it and/or                  |
| modify it under the terms of the GNU Lesser General Public            |
| License as published by the Free Software Foundation; either          |
| version 2.1 of the License, or (at your option) any later version.    |
|                                                                       |
| SU2 is distributed in the hope that it will be useful,                |
| but WITHOUT ANY WARRANTY; without even the implied warranty of        |
| MERCHANTABILITY or FITNESS FOR A PARTICULAR PURPOSE. See the GNU      |
| Lesser General Public License for more details.                       |
|                                                                       |
| You should have received a copy of the GNU Lesser General Public      |
| License along with SU2. If not, see <http://www.gnu.org/licenses/>.   |
-------------------------------------------------------------------------

Parsing config file for zone 0

----------------- Physical Case Definition ( Zone 0 ) -------------------
Compressible Euler equations.
Mach number: 0.294.
Angle of attack (AoA): 10 deg, and angle of sideslip (AoS): 0 deg.
No restart solution, use the values at infinity (freestream).
Dimensional simulation.
The reference area is 10 m^2.
The semi-span will be computed using the max y(3D) value.
The reference length is 1 m.
Reference origin for moment evaluation is (0, 0, 0).
Surface(s) where the force coefficients are evaluated: Wing_1.

Surface(s) where the objective function is evaluated: airfoil.
Surface(s) plotted in the output file: Wing_1.
Surface(s) to be analyzed in detail: airfoil.
Surface(s) affected by the design variables: Wing_1.
Input mesh file name: /users/disk9/cfse2/Documents/aeroframe_2/test/static/8_WingValidationSU2FramAT_case1/CFD/MESH/FlyingWing_baseline.su2

--------------- Space Numerical Integration ( Zone 0 ) ------------------
Roe (with entropy fix = 0) solver for the flow inviscid terms.
Roe with DDES's FD low-dissipation function.
Second order integration in space, with slope limiter.
Venkatakrishnan slope-limiting method, with constant: 0.05. 
The reference element size is: 1. 
Gradient for upwind reconstruction: Green-Gauss.
Gradient for viscous and source terms: Green-Gauss.

--------------- Time Numerical Integration  ( Zone 0 ) ------------------
Local time stepping (steady state simulation).
Euler implicit method for the flow equations.
FGMRES is used for solving the linear system.
Using a ILU(0) preconditioning.
Convergence criteria of the linear solver: 1e-06.
Max number of linear iterations: 5.
V Multigrid Cycle, with 3 multigrid levels.
Damping factor for the residual restriction: 0.75.
Damping factor for the correction prolongation: 0.75.
No CFL adaptation.
+-------------------------------------------+
|  MG Level| Presmooth|PostSmooth|CorrectSmo|
+-------------------------------------------+
|         0|         1|         0|         0|
|         1|         2|         0|         0|
|         2|         3|         0|         0|
|         3|         3|         0|         0|
+-------------------------------------------+
Courant-Friedrichs-Lewy number:        1

------------------ Convergence Criteria  ( Zone 0 ) ---------------------
Maximum number of solver subiterations: 1000.
Begin convergence monitoring at iteration 10.
Residual minimum value: 1e-8.
Cauchy series min. value: 1e-10.
Number of Cauchy elements: 100.
Begin windowed time average at iteration 15.

-------------------- Output Information ( Zone 0 ) ----------------------
Writing solution files every 10 iterations.
Writing the convergence history file every 1 inner iterations.
Writing the screen convergence history every 1 inner iterations.
The tabular file format is Tecplot (.dat).
Convergence history file name: history.
Forces breakdown file name: forces_breakdown.dat.
Surface file name: surface_flow.
Volume file name: flow.
Restart file name: solution_flow.dat.

------------- Config File Boundary Information ( Zone 0 ) ---------------
+-----------------------------------------------------------------------+
|                        Marker Type|                        Marker Name|
+-----------------------------------------------------------------------+
|                         Euler wall|                             Wing_1|
+-----------------------------------------------------------------------+
|                          Far-field|                           Farfield|
+-----------------------------------------------------------------------+
|                     Symmetry plane|                                  0|
+-----------------------------------------------------------------------+
|           Deformable mesh boundary|                            airfoil|
+-----------------------------------------------------------------------+

-------------------- Output Preprocessing ( Zone 0 ) --------------------
Screen output fields: INNER_ITER, TIME_ITER, RMS_DENSITY, RMS_MOMENTUM-X, RMS_MOMENTUM-Y, RMS_ENERGY, LIFT, DRAG
  Info: Ignoring the following history output groups:
  TIME_ITER
History output group(s): ITER, RMS_RES, AERO_COEFF
Warning: No (valid) fields chosen for convergence monitoring. Convergence monitoring inactive.
Warning: No (valid) fields chosen for time convergence monitoring. Time convergence monitoring inactive.
Volume output fields: COORDINATES, SOLUTION, PRIMITIVE

------------------- Geometry Preprocessing ( Zone 0 ) -------------------
Three dimensional problem.
142678 grid points before partitioning.
739205 volume elements before partitioning.
2 surface markers.
99234 boundary elements in index 0 (Marker = Wing_1).
1280 boundary elements in index 1 (Marker = Farfield).
Executing the partitioning functions.
Building the graph adjacency structure.
Calling ParMETIS... graph partitioning complete (4166 edge cuts).
Distributing ParMETIS coloring.
Rebalancing vertices.
Rebalancing volume element connectivity.
Rebalancing markers and surface elements.
144929 vertices including ghost points. 
745322 interior elements including halo cells. 
745322 tetrahedra.
Establishing MPI communication patterns.
Setting point connectivity.
Renumbering points (Reverse Cuthill McKee Ordering).
Recomputing point connectivity.
Setting element connectivity.
Checking the numerical grid orientation.
Identifying edges and vertices.
Computing centers of gravity.
Setting the control volume structure.
Volume of the computational grid: 587951.
Searching for the closest normal neighbors to the surfaces.
Storing a mapping from global to local point index.
Compute the surface curvature.
Max K: 951.007. Mean K: 12.893. Standard deviation K: 55.0519.
Checking for periodicity.
Computing mesh quality statistics for the dual control volumes.
+--------------------------------------------------------------+
|           Mesh Quality Metric|        Minimum|        Maximum|
+--------------------------------------------------------------+
|    Orthogonality Angle (deg.)|        47.7036|        84.4547|
|     CV Face Area Aspect Ratio|        1.42996|        37.8706|
|           CV Sub-Volume Ratio|        1.02891|        137.912|
+--------------------------------------------------------------+
Setting the multigrid structure.
+-------------------------------------------+
|  MG Level|       CVs|Aggl. Rate|       CFL|
+-------------------------------------------+
|         0|    144929|    1/1.00|         1|
|         1|     24126|    1/6.01|  0.825153|
|         2|      3796|    1/6.36|    0.6682|
|         3|       782|    1/4.85|  0.591958|
+-------------------------------------------+
Finding max control volume width.
Communicating number of neighbors.
Semi-span length = 5 m.
Wetted area = 42.1877 m^2.
Area projection in the x-plane = 2.98744 m^2, y-plane = 0.416438 m^2, z-plane = 20.1191 m^2.
Max. coordinate in the x-direction = 1.02355 m, y-direction = 5 m, z-direction = 0.162798 m.
Min. coordinate in the x-direction = -0.997208 m, y-direction = -5 m, z-direction = -0.136247 m.
Checking if Euler & Symmetry markers are straight/plane:
Boundary marker Wing_1 is NOT a single plane.
Boundary marker 0 is a single plane.

-------------------- Solver Preprocessing ( Zone 0 ) --------------------
Inviscid flow: Computing density based on free-stream
temperature and pressure using the ideal gas law.
Force coefficients computed using free-stream values.

-- Models:
+------------------------------------------------------------------------------+
|          Viscosity Model|        Conductivity Model|              Fluid Model|
+------------------------------------------------------------------------------+
|                        -|                         -|             STANDARD_AIR|
+------------------------------------------------------------------------------+
-- Fluid properties:
+------------------------------------------------------------------------------+
|                  Name|    Dim. value|    Ref. value|      Unit|Non-dim. value|
+------------------------------------------------------------------------------+
|          Gas Constant|       287.058|             1|  N.m/kg.K|       287.058|
|      Spec. Heat Ratio|             -|             -|         -|           1.4|
+------------------------------------------------------------------------------+
-- Initial and free-stream conditions:
+------------------------------------------------------------------------------+
|                  Name|    Dim. value|    Ref. value|      Unit|Non-dim. value|
+------------------------------------------------------------------------------+
|       Static Pressure|        101325|             1|        Pa|        101325|
|               Density|       1.22498|             1|    kg/m^3|       1.22498|
|           Temperature|        288.15|             1|         K|        288.15|
|          Total Energy|        211794|             1|   m^2/s^2|        211794|
|            Velocity-X|       98.5274|             1|       m/s|       98.5274|
|            Velocity-Y|             0|             1|       m/s|             0|
|            Velocity-Z|        17.373|             1|       m/s|        17.373|
|    Velocity Magnitude|       100.047|             1|       m/s|       100.047|
+------------------------------------------------------------------------------+
|           Mach Number|             -|             -|         -|         0.294|
+------------------------------------------------------------------------------+
Initialize Jacobian structure (Euler). MG level: 0.
Initialize Jacobian structure (Euler). MG level: 1.
Initialize Jacobian structure (Euler). MG level: 2.
Initialize Jacobian structure (Euler). MG level: 3.

------------------- Numerics Preprocessing ( Zone 0 ) -------------------

----------------- Integration Preprocessing ( Zone 0 ) ------------------

------------------- Iteration Preprocessing ( Zone 0 ) ------------------
Euler/Navier-Stokes/RANS fluid iteration.

------------------------------ Begin Solver -----------------------------

Simulation Run using the Single-zone Driver
+-------------------------------------------------------------------------------------------------------+
|  Inner_Iter|   Time_Iter|    rms[Rho]|   rms[RhoU]|   rms[RhoV]|   rms[RhoE]|          CL|          CD|
+-------------------------------------------------------------------------------------------------------+
|           0|           0|   -1.719088|    0.456978|   -0.879351|    3.750012|    1.812332|    0.824593|
|           1|           0|   -1.790708|    0.426824|   -0.018319|    3.680217|    3.136149|    1.416392|
|           2|           0|   -1.729792|    0.541461|    0.233625|    3.743835|    4.040017|    1.807350|
|           3|           0|   -1.643316|    0.664668|    0.381816|    3.831123|    4.601238|    2.032313|
|           4|           0|   -1.565099|    0.776189|    0.499688|    3.909733|    4.892207|    2.124522|
|           5|           0|   -1.497211|    0.877762|    0.606392|    3.978127|    4.977200|    2.114880|
|           6|           0|   -1.438016|    0.971047|    0.707002|    4.037920|    4.910719|    2.030704|
|           7|           0|   -1.386575|    1.056234|    0.801800|    4.089934|    4.738485|    1.895312|
|           8|           0|   -1.342988|    1.133241|    0.890531|    4.133962|    4.498848|    1.728438|
|           9|           0|   -1.307645|    1.202060|    0.972379|    4.169519|    4.222123|    1.546216|
|          10|           0|   -1.281077|    1.262723|    1.046741|    4.196014|    3.929717|    1.360652|
+-----------------------------------------------------------------------+
|        File Writing Summary       |              Filename             |
+-----------------------------------------------------------------------+
|SU2 restart                        |solution_flow.dat                  |
|Paraview                           |flow.vtu                           |
|Paraview surface                   |surface_flow.vtu                   |
+-----------------------------------------------------------------------+

Writing the forces breakdown file (forces_breakdown.dat).
+-------------------------------------------------------------------------------------------------------+
|  Inner_Iter|   Time_Iter|    rms[Rho]|   rms[RhoU]|   rms[RhoV]|   rms[RhoE]|          CL|          CD|
+-------------------------------------------------------------------------------------------------------+
|          11|           0|   -1.263539|    1.315482|    1.113389|    4.213065|    3.636595|    1.180181|
|          12|           0|   -1.255082|    1.360501|    1.172239|    4.220455|    3.352665|    1.010475|
|          13|           0|   -1.255759|    1.398067|    1.223423|    4.217873|    3.083473|    0.854752|
|          14|           0|   -1.265057|    1.428279|    1.266910|    4.205424|    2.831244|    0.714243|
|          15|           0|   -1.281760|    1.451306|    1.302784|    4.183735|    2.595970|    0.588849|
|          16|           0|   -1.303528|    1.467339|    1.331152|    4.154535|    2.376089|    0.477560|
|          17|           0|   -1.325502|    1.476598|    1.352121|    4.122503|    2.169338|    0.378909|
|          18|           0|   -1.340867|    1.479364|    1.365964|    4.095823|    1.973212|    0.291225|
|          19|           0|   -1.342008|    1.475799|    1.372817|    4.085839|    1.785333|    0.212843|
|          20|           0|   -1.325795|    1.466217|    1.372777|    4.099694|    1.603803|    0.142279|
+-----------------------------------------------------------------------+
|        File Writing Summary       |              Filename             |
+-----------------------------------------------------------------------+
|SU2 restart                        |solution_flow.dat                  |
|Paraview                           |flow.vtu                           |
|Paraview surface                   |surface_flow.vtu                   |
+-----------------------------------------------------------------------+

Writing the forces breakdown file (forces_breakdown.dat).
+-------------------------------------------------------------------------------------------------------+
|  Inner_Iter|   Time_Iter|    rms[Rho]|   rms[RhoU]|   rms[RhoV]|   rms[RhoE]|          CL|          CD|
+-------------------------------------------------------------------------------------------------------+
|          21|           0|   -1.295323|    1.451016|    1.366153|    4.134505|    1.427378|    0.078306|
|          22|           0|   -1.257964|    1.430767|    1.353152|    4.179709|    1.255540|    0.020004|
|          23|           0|   -1.220641|    1.406634|    1.334134|    4.225303|    1.088431|   -0.033240|
|          24|           0|   -1.187645|    1.379381|    1.309821|    4.265569|    0.926767|   -0.081765|
|          25|           0|   -1.161436|    1.350717|    1.281301|    4.297609|    0.771750|   -0.125678|
|          26|           0|   -1.142586|    1.322392|    1.250231|    4.320926|    0.624870|   -0.164931|
|          27|           0|   -1.130761|    1.296621|    1.218469|    4.335929|    0.487816|   -0.199364|
|          28|           0|   -1.125571|    1.275155|    1.188783|    4.342982|    0.362285|   -0.228765|
|          29|           0|   -1.125899|    1.259825|    1.163635|    4.343263|    0.249884|   -0.252917|
|          30|           0|   -1.130350|    1.253072|    1.145248|    4.338176|    0.152089|   -0.271627|
+-----------------------------------------------------------------------+
|        File Writing Summary       |              Filename             |
+-----------------------------------------------------------------------+
|SU2 restart                        |solution_flow.dat                  |
|Paraview                           |flow.vtu                           |
|Paraview surface                   |surface_flow.vtu                   |
+-----------------------------------------------------------------------+

Writing the forces breakdown file (forces_breakdown.dat).
+-------------------------------------------------------------------------------------------------------+
|  Inner_Iter|   Time_Iter|    rms[Rho]|   rms[RhoU]|   rms[RhoV]|   rms[RhoE]|          CL|          CD|
+-------------------------------------------------------------------------------------------------------+
|          31|           0|   -1.136550|    1.253799|    1.135406|    4.330113|    0.070160|   -0.284758|
|          32|           0|   -1.143088|    1.261884|    1.134664|    4.320502|    0.005096|   -0.292250|
|          33|           0|   -1.148083|    1.275557|    1.142943|    4.311618|   -0.042366|   -0.294115|
|          34|           0|   -1.150142|    1.293979|    1.159640|    4.305581|   -0.071784|   -0.290459|
|          35|           0|   -1.148893|    1.315817|    1.182425|    4.303169|   -0.082982|   -0.281459|
|          36|           0|   -1.146653|    1.340624|    1.209692|    4.302557|   -0.076056|   -0.267367|
|          37|           0|   -1.146014|    1.365599|    1.239643|    4.301000|   -0.051362|   -0.248493|
|          38|           0|   -1.147810|    1.388410|    1.270290|    4.297499|   -0.009498|   -0.225204|
|          39|           0|   -1.152559|    1.408543|    1.299992|    4.291299|    0.048694|   -0.197912|
|          40|           0|   -1.160779|    1.423958|    1.327324|    4.281517|    0.122165|   -0.167067|
+-----------------------------------------------------------------------+
|        File Writing Summary       |              Filename             |
+-----------------------------------------------------------------------+
|SU2 restart                        |solution_flow.dat                  |
|Paraview                           |flow.vtu                           |
|Paraview surface                   |surface_flow.vtu                   |
+-----------------------------------------------------------------------+

Writing the forces breakdown file (forces_breakdown.dat).
+-------------------------------------------------------------------------------------------------------+
|  Inner_Iter|   Time_Iter|    rms[Rho]|   rms[RhoU]|   rms[RhoV]|   rms[RhoE]|          CL|          CD|
+-------------------------------------------------------------------------------------------------------+
|          41|           0|   -1.172656|    1.434595|    1.350395|    4.267684|    0.209661|   -0.133154|
|          42|           0|   -1.186848|    1.439656|    1.368306|    4.251278|    0.309732|   -0.096683|
|          43|           0|   -1.199855|    1.438491|    1.380492|    4.235996|    0.420780|   -0.058183|
|          44|           0|   -1.208102|    1.431167|    1.386620|    4.226024|    0.541059|   -0.018192|
|          45|           0|   -1.209764|    1.418092|    1.386478|    4.223984|    0.668719|    0.022741|
|          46|           0|   -1.203185|    1.399414|    1.380167|    4.231976|    0.801820|    0.064067|
|          47|           0|   -1.189358|    1.375304|    1.368052|    4.248981|    0.938370|    0.105234|
|          48|           0|   -1.170813|    1.346567|    1.351055|    4.271602|    1.076358|    0.145706|
|          49|           0|   -1.151610|    1.314521|    1.330267|    4.294870|    1.213791|    0.184962|
|          50|           0|   -1.134995|    1.281947|    1.308254|    4.315109|    1.348717|    0.222501|
+-----------------------------------------------------------------------+
|        File Writing Summary       |              Filename             |
+-----------------------------------------------------------------------+
|SU2 restart                        |solution_flow.dat                  |
|Paraview                           |flow.vtu                           |
|Paraview surface                   |surface_flow.vtu                   |
+-----------------------------------------------------------------------+

Writing the forces breakdown file (forces_breakdown.dat).
+-------------------------------------------------------------------------------------------------------+
|  Inner_Iter|   Time_Iter|    rms[Rho]|   rms[RhoU]|   rms[RhoV]|   rms[RhoE]|          CL|          CD|
+-------------------------------------------------------------------------------------------------------+
|          51|           0|   -1.122514|    1.253269|    1.287779|    4.330607|    1.479252|    0.257846|
|          52|           0|   -1.115655|    1.233549|    1.272563|    4.339813|    1.603623|    0.290560|
|          53|           0|   -1.115136|    1.226264|    1.265834|    4.342016|    1.720206|    0.320249|
|          54|           0|   -1.121549|    1.231628|    1.268663|    4.336440|    1.827544|    0.346572|
|          55|           0|   -1.134074|    1.247042|    1.280326|    4.323641|    1.924384|    0.369247|
|          56|           0|   -1.150994|    1.267688|    1.297922|    4.305192|    2.009684|    0.388050|
|          57|           0|   -1.172209|    1.289084|    1.318223|    4.280950|    2.082635|    0.402827|
|          58|           0|   -1.195455|    1.308511|    1.338223|    4.252958|    2.142668|    0.413489|
|          59|           0|   -1.218605|    1.324599|    1.356204|    4.223197|    2.189448|    0.420017|
|          60|           0|   -1.238627|    1.336415|    1.370617|    4.195126|    2.222874|    0.422457|
+-----------------------------------------------------------------------+
|        File Writing Summary       |              Filename             |
+-----------------------------------------------------------------------+
|SU2 restart                        |solution_flow.dat                  |
|Paraview                           |flow.vtu                           |
|Paraview surface                   |surface_flow.vtu                   |
+-----------------------------------------------------------------------+

Writing the forces breakdown file (forces_breakdown.dat).
+-------------------------------------------------------------------------------------------------------+
|  Inner_Iter|   Time_Iter|    rms[Rho]|   rms[RhoU]|   rms[RhoV]|   rms[RhoE]|          CL|          CD|
+-------------------------------------------------------------------------------------------------------+
|          61|           0|   -1.253383|    1.343711|    1.381168|    4.172093|    2.243074|    0.420923|
|          62|           0|   -1.261017|    1.346511|    1.387665|    4.157704|    2.250387|    0.415582|
|          63|           0|   -1.261669|    1.345282|    1.390283|    4.153191|    2.245341|    0.406659|
|          64|           0|   -1.256755|    1.339679|    1.389530|    4.157545|    2.228653|    0.394433|
|          65|           0|   -1.248805|    1.330565|    1.385599|    4.167561|    2.201192|    0.379225|
|          66|           0|   -1.239769|    1.318269|    1.378493|    4.180567|    2.163966|    0.361396|
|          67|           0|   -1.231288|    1.302792|    1.368701|    4.194069|    2.118087|    0.341332|
|          68|           0|   -1.225057|    1.284630|    1.356797|    4.205594|    2.064745|    0.319443|
|          69|           0|   -1.221336|    1.264994|    1.343768|    4.214491|    2.005196|    0.296154|
|          70|           0|   -1.220637|    1.244072|    1.329891|    4.219992|    1.940720|    0.271892|
+-----------------------------------------------------------------------+
|        File Writing Summary       |              Filename             |
+-----------------------------------------------------------------------+
|SU2 restart                        |solution_flow.dat                  |
|Paraview                           |flow.vtu                           |
|Paraview surface                   |surface_flow.vtu                   |
+-----------------------------------------------------------------------+

Writing the forces breakdown file (forces_breakdown.dat).
+-------------------------------------------------------------------------------------------------------+
|  Inner_Iter|   Time_Iter|    rms[Rho]|   rms[RhoU]|   rms[RhoV]|   rms[RhoE]|          CL|          CD|
+-------------------------------------------------------------------------------------------------------+
|          71|           0|   -1.222842|    1.222779|    1.316088|    4.222070|    1.872624|    0.247083|
|          72|           0|   -1.227628|    1.202292|    1.303214|    4.220972|    1.802223|    0.222146|
|          73|           0|   -1.234724|    1.183366|    1.291900|    4.216793|    1.730786|    0.197481|
|          74|           0|   -1.243791|    1.167085|    1.282655|    4.209816|    1.659544|    0.173465|
|          75|           0|   -1.254276|    1.154625|    1.275621|    4.200515|    1.589646|    0.150445|
|          76|           0|   -1.265916|    1.146795|    1.271005|    4.189106|    1.522155|    0.128732|
|          77|           0|   -1.278316|    1.144650|    1.268658|    4.175876|    1.458019|    0.108598|
|          78|           0|   -1.291460|    1.147357|    1.268401|    4.160766|    1.398108|    0.090275|
|          79|           0|   -1.305309|    1.153702|    1.269495|    4.143798|    1.343173|    0.073957|
|          80|           0|   -1.319420|    1.162272|    1.271154|    4.125495|    1.293855|    0.059788|
+-----------------------------------------------------------------------+
|        File Writing Summary       |              Filename             |
+-----------------------------------------------------------------------+
|SU2 restart                        |solution_flow.dat                  |
|Paraview                           |flow.vtu                           |
|Paraview surface                   |surface_flow.vtu                   |
+-----------------------------------------------------------------------+

Writing the forces breakdown file (forces_breakdown.dat).
+-------------------------------------------------------------------------------------------------------+
|  Inner_Iter|   Time_Iter|    rms[Rho]|   rms[RhoU]|   rms[RhoV]|   rms[RhoE]|          CL|          CD|
+-------------------------------------------------------------------------------------------------------+
|          81|           0|   -1.333151|    1.172296|    1.272756|    4.106731|    1.250670|    0.047872|
|          82|           0|   -1.345990|    1.182627|    1.273903|    4.088309|    1.214005|    0.038266|
|          83|           0|   -1.358113|    1.192607|    1.274247|    4.070397|    1.184129|    0.030985|
|          84|           0|   -1.369695|    1.200199|    1.273636|    4.053169|    1.161197|    0.026005|
|          85|           0|   -1.380243|    1.205597|    1.271293|    4.037832|    1.145249|    0.023265|
|          86|           0|   -1.389775|    1.208355|    1.266915|    4.024828|    1.136215|    0.022671|
|          87|           0|   -1.398548|    1.208537|    1.260495|    4.014047|    1.133915|    0.024093|
|          88|           0|   -1.406755|    1.206568|    1.252376|    4.005315|    1.138096|    0.027381|
|          89|           0|   -1.414445|    1.202135|    1.242654|    3.998679|    1.148411|    0.032362|
|          90|           0|   -1.421927|    1.195117|    1.231551|    3.993665|    1.164438|    0.038844|
+-----------------------------------------------------------------------+
|        File Writing Summary       |              Filename             |
+-----------------------------------------------------------------------+
|SU2 restart                        |solution_flow.dat                  |
|Paraview                           |flow.vtu                           |
|Paraview surface                   |surface_flow.vtu                   |
+-----------------------------------------------------------------------+

Writing the forces breakdown file (forces_breakdown.dat).
+-------------------------------------------------------------------------------------------------------+
|  Inner_Iter|   Time_Iter|    rms[Rho]|   rms[RhoU]|   rms[RhoV]|   rms[RhoE]|          CL|          CD|
+-------------------------------------------------------------------------------------------------------+
|          91|           0|   -1.429233|    1.185633|    1.218934|    3.989869|    1.185705|    0.046627|
|          92|           0|   -1.436523|    1.173441|    1.204919|    3.986855|    1.211673|    0.055500|
|          93|           0|   -1.444446|    1.159062|    1.189908|    3.983502|    1.241748|    0.065245|
|          94|           0|   -1.452869|    1.142751|    1.174484|    3.979754|    1.275328|    0.075648|
|          95|           0|   -1.462483|    1.125253|    1.158885|    3.974633|    1.311782|    0.086497|
|          96|           0|   -1.473045|    1.107164|    1.143652|    3.968220|    1.350450|    0.097583|
|          97|           0|   -1.484528|    1.089484|    1.129278|    3.960418|    1.390686|    0.108714|
|          98|           0|   -1.497434|    1.072956|    1.115840|    3.950574|    1.431849|    0.119706|
|          99|           0|   -1.512001|    1.058445|    1.103902|    3.938331|    1.473322|    0.130393|
|         100|           0|   -1.527879|    1.046797|    1.093753|    3.924086|    1.514495|    0.140624|
+-----------------------------------------------------------------------+
|        File Writing Summary       |              Filename             |
+-----------------------------------------------------------------------+
|SU2 restart                        |solution_flow.dat                  |
|Paraview                           |flow.vtu                           |
|Paraview surface                   |surface_flow.vtu                   |
+-----------------------------------------------------------------------+

Writing the forces breakdown file (forces_breakdown.dat).
+-------------------------------------------------------------------------------------------------------+
|  Inner_Iter|   Time_Iter|    rms[Rho]|   rms[RhoU]|   rms[RhoV]|   rms[RhoE]|          CL|          CD|
+-------------------------------------------------------------------------------------------------------+
|         101|           0|   -1.544636|    1.038037|    1.085290|    3.908296|    1.554785|    0.150266|
|         102|           0|   -1.562311|    1.032382|    1.078333|    3.890791|    1.593679|    0.159208|
|         103|           0|   -1.580654|    1.029731|    1.072576|    3.871910|    1.630693|    0.167356|
|         104|           0|   -1.599048|    1.029683|    1.067578|    3.852398|    1.665388|    0.174635|
|         105|           0|   -1.617822|    1.031567|    1.062980|    3.831855|    1.697392|    0.180992|
|         106|           0|   -1.636657|    1.034968|    1.058479|    3.810636|    1.726388|    0.186397|
|         107|           0|   -1.654944|    1.039189|    1.053719|    3.789599|    1.752114|    0.190833|
|         108|           0|   -1.672855|    1.043593|    1.048304|    3.768694|    1.774368|    0.194299|
|         109|           0|   -1.690142|    1.047599|    1.042091|    3.748394|    1.793011|    0.196811|
|         110|           0|   -1.706506|    1.050851|    1.035017|    3.729326|    1.807966|    0.198397|
+-----------------------------------------------------------------------+
|        File Writing Summary       |              Filename             |
+-----------------------------------------------------------------------+
|SU2 restart                        |solution_flow.dat                  |
|Paraview                           |flow.vtu                           |
|Paraview surface                   |surface_flow.vtu                   |
+-----------------------------------------------------------------------+

Writing the forces breakdown file (forces_breakdown.dat).
+-------------------------------------------------------------------------------------------------------+
|  Inner_Iter|   Time_Iter|    rms[Rho]|   rms[RhoU]|   rms[RhoV]|   rms[RhoE]|          CL|          CD|
+-------------------------------------------------------------------------------------------------------+
|         111|           0|   -1.722279|    1.053153|    1.026829|    3.711250|    1.819222|    0.199101|
|         112|           0|   -1.736923|    1.054321|    1.017453|    3.695043|    1.826821|    0.198973|
|         113|           0|   -1.750491|    1.054653|    1.006707|    3.680747|    1.830834|    0.198069|
|         114|           0|   -1.763057|    1.053821|    0.994565|    3.668314|    1.831384|    0.196450|
|         115|           0|   -1.774475|    1.051585|    0.981104|    3.658027|    1.828633|    0.194181|
|         116|           0|   -1.784667|    1.048133|    0.966381|    3.649957|    1.822792|    0.191332|
|         117|           0|   -1.793732|    1.043604|    0.950351|    3.643836|    1.814097|    0.187977|
|         118|           0|   -1.801545|    1.037888|    0.933049|    3.639747|    1.802833|    0.184195|
|         119|           0|   -1.808402|    1.031246|    0.914640|    3.637094|    1.789303|    0.180062|
|         120|           0|   -1.814167|    1.023742|    0.894974|    3.635876|    1.773816|    0.175651|
+-----------------------------------------------------------------------+
|        File Writing Summary       |              Filename             |
+-----------------------------------------------------------------------+
|SU2 restart                        |solution_flow.dat                  |
|Paraview                           |flow.vtu                           |
|Paraview surface                   |surface_flow.vtu                   |
+-----------------------------------------------------------------------+

Writing the forces breakdown file (forces_breakdown.dat).
+-------------------------------------------------------------------------------------------------------+
|  Inner_Iter|   Time_Iter|    rms[Rho]|   rms[RhoU]|   rms[RhoV]|   rms[RhoE]|          CL|          CD|
+-------------------------------------------------------------------------------------------------------+
|         121|           0|   -1.818896|    1.015662|    0.874485|    3.635682|    1.756694|    0.171037|
|         122|           0|   -1.823027|    1.007251|    0.852932|    3.636020|    1.738276|    0.166290|
|         123|           0|   -1.827097|    0.998570|    0.830643|    3.635978|    1.718891|    0.161476|
|         124|           0|   -1.831281|    0.989886|    0.808048|    3.635379|    1.698880|    0.156659|
|         125|           0|   -1.835847|    0.980994|    0.785349|    3.633790|    1.678569|    0.151899|
|         126|           0|   -1.841440|    0.972612|    0.763624|    3.630422|    1.658267|    0.147249|
|         127|           0|   -1.847698|    0.964496|    0.743338|    3.625683|    1.638279|    0.142759|
|         128|           0|   -1.854763|    0.956302|    0.725138|    3.619150|    1.618894|    0.138476|
|         129|           0|   -1.862369|    0.947841|    0.709844|    3.611252|    1.600372|    0.134438|
|         130|           0|   -1.871943|    0.940845|    0.697799|    3.600618|    1.582965|    0.130684|
+-----------------------------------------------------------------------+
|        File Writing Summary       |              Filename             |
+-----------------------------------------------------------------------+
|SU2 restart                        |solution_flow.dat                  |
|Paraview                           |flow.vtu                           |
|Paraview surface                   |surface_flow.vtu                   |
+-----------------------------------------------------------------------+

Writing the forces breakdown file (forces_breakdown.dat).
+-------------------------------------------------------------------------------------------------------+
|  Inner_Iter|   Time_Iter|    rms[Rho]|   rms[RhoU]|   rms[RhoV]|   rms[RhoE]|          CL|          CD|
+-------------------------------------------------------------------------------------------------------+
|         131|           0|   -1.882307|    0.937712|    0.688850|    3.588998|    1.566899|    0.127245|
|         132|           0|   -1.893111|    0.931267|    0.683336|    3.575283|    1.552367|    0.124143|
|         133|           0|   -1.904167|    0.925547|    0.680684|    3.560692|    1.539533|    0.121396|
|         134|           0|   -1.915381|    0.920477|    0.680121|    3.545250|    1.528542|    0.119021|
|         135|           0|   -1.926418|    0.915693|    0.681168|    3.529226|    1.519505|    0.117027|
|         136|           0|   -1.937287|    0.911473|    0.683226|    3.512858|    1.512502|    0.115416|
|         137|           0|   -1.947226|    0.907473|    0.685664|    3.497067|    1.507582|    0.114185|
|         138|           0|   -1.955717|    0.903586|    0.687883|    3.482678|    1.504769|    0.113331|
|         139|           0|   -1.962332|    0.899234|    0.689308|    3.470382|    1.504032|    0.112839|
|         140|           0|   -1.966751|    0.894119|    0.689427|    3.460944|    1.505306|    0.112688|
+-----------------------------------------------------------------------+
|        File Writing Summary       |              Filename             |
+-----------------------------------------------------------------------+
|SU2 restart                        |solution_flow.dat                  |
|Paraview                           |flow.vtu                           |
|Paraview surface                   |surface_flow.vtu                   |
+-----------------------------------------------------------------------+

Writing the forces breakdown file (forces_breakdown.dat).
+-------------------------------------------------------------------------------------------------------+
|  Inner_Iter|   Time_Iter|    rms[Rho]|   rms[RhoU]|   rms[RhoV]|   rms[RhoE]|          CL|          CD|
+-------------------------------------------------------------------------------------------------------+
|         141|           0|   -1.969104|    0.887977|    0.687768|    3.454593|    1.508505|    0.112855|
|         142|           0|   -1.969441|    0.880587|    0.684345|    3.451681|    1.513530|    0.113318|
|         143|           0|   -1.968201|    0.871993|    0.679127|    3.451855|    1.520252|    0.114048|
|         144|           0|   -1.965772|    0.862200|    0.672058|    3.454720|    1.528525|    0.115015|
|         145|           0|   -1.962712|    0.851434|    0.662991|    3.459568|    1.538177|    0.116185|
|         146|           0|   -1.959434|    0.839611|    0.651879|    3.465671|    1.549016|    0.117524|
|         147|           0|   -1.956247|    0.826826|    0.638669|    3.472493|    1.560852|    0.119001|
|         148|           0|   -1.953662|    0.813091|    0.623592|    3.479201|    1.573482|    0.120582|
|         149|           0|   -1.951999|    0.798725|    0.606814|    3.485224|    1.586702|    0.122234|
|         150|           0|   -1.951335|    0.783946|    0.588641|    3.490320|    1.600305|    0.123924|
+-----------------------------------------------------------------------+
|        File Writing Summary       |              Filename             |
+-----------------------------------------------------------------------+
|SU2 restart                        |solution_flow.dat                  |
|Paraview                           |flow.vtu                           |
|Paraview surface                   |surface_flow.vtu                   |
+-----------------------------------------------------------------------+

Writing the forces breakdown file (forces_breakdown.dat).
+-------------------------------------------------------------------------------------------------------+
|  Inner_Iter|   Time_Iter|    rms[Rho]|   rms[RhoU]|   rms[RhoV]|   rms[RhoE]|          CL|          CD|
+-------------------------------------------------------------------------------------------------------+
|         151|           0|   -1.951771|    0.768830|    0.569376|    3.494161|    1.614085|    0.125621|
|         152|           0|   -1.953428|    0.753679|    0.549671|    3.496497|    1.627838|    0.127297|
|         153|           0|   -1.956327|    0.738913|    0.530230|    3.497187|    1.641369|    0.128925|
|         154|           0|   -1.960360|    0.724863|    0.511787|    3.496251|    1.654492|    0.130481|
|         155|           0|   -1.965634|    0.711873|    0.495240|    3.493396|    1.667034|    0.131945|
|         156|           0|   -1.972020|    0.700243|    0.481654|    3.488594|    1.678834|    0.133297|
|         157|           0|   -1.979657|    0.690268|    0.471836|    3.481781|    1.689745|    0.134521|
|         158|           0|   -1.988340|    0.682034|    0.466109|    3.473029|    1.699648|    0.135604|
|         159|           0|   -1.998045|    0.675506|    0.464511|    3.462202|    1.708436|    0.136535|
|         160|           0|   -2.008242|    0.670764|    0.466385|    3.449872|    1.716032|    0.137311|
+-----------------------------------------------------------------------+
|        File Writing Summary       |              Filename             |
+-----------------------------------------------------------------------+
|SU2 restart                        |solution_flow.dat                  |
|Paraview                           |flow.vtu                           |
|Paraview surface                   |surface_flow.vtu                   |
+-----------------------------------------------------------------------+

Writing the forces breakdown file (forces_breakdown.dat).
+-------------------------------------------------------------------------------------------------------+
|  Inner_Iter|   Time_Iter|    rms[Rho]|   rms[RhoU]|   rms[RhoV]|   rms[RhoE]|          CL|          CD|
+-------------------------------------------------------------------------------------------------------+
|         161|           0|   -2.018870|    0.667597|    0.470838|    3.436070|    1.722370|    0.137927|
|         162|           0|   -2.029693|    0.665710|    0.476938|    3.421052|    1.727401|    0.138378|
|         163|           0|   -2.040560|    0.664609|    0.483677|    3.404993|    1.731112|    0.138671|
|         164|           0|   -2.051124|    0.663923|    0.490235|    3.388335|    1.733495|    0.138807|
|         165|           0|   -2.061286|    0.663385|    0.495947|    3.371425|    1.734577|    0.138795|
|         166|           0|   -2.070292|    0.662355|    0.500300|    3.355494|    1.734404|    0.138647|
|         167|           0|   -2.078164|    0.660455|    0.502904|    3.340897|    1.733032|    0.138374|
|         168|           0|   -2.084711|    0.657351|    0.503497|    3.328376|    1.730529|    0.137990|
|         169|           0|   -2.089975|    0.652983|    0.501839|    3.318422|    1.726981|    0.137506|
|         170|           0|   -2.093757|    0.647005|    0.497812|    3.311631|    1.722486|    0.136938|
+-----------------------------------------------------------------------+
|        File Writing Summary       |              Filename             |
+-----------------------------------------------------------------------+
|SU2 restart                        |solution_flow.dat                  |
|Paraview                           |flow.vtu                           |
|Paraview surface                   |surface_flow.vtu                   |
+-----------------------------------------------------------------------+

Writing the forces breakdown file (forces_breakdown.dat).
+-------------------------------------------------------------------------------------------------------+
|  Inner_Iter|   Time_Iter|    rms[Rho]|   rms[RhoU]|   rms[RhoV]|   rms[RhoE]|          CL|          CD|
+-------------------------------------------------------------------------------------------------------+
|         171|           0|   -2.096401|    0.639246|    0.491382|    3.307853|    1.717166|    0.136302|
|         172|           0|   -2.097881|    0.629697|    0.482454|    3.307157|    1.711133|    0.135614|
|         173|           0|   -2.098548|    0.618229|    0.471296|    3.308907|    1.704522|    0.134891|
|         174|           0|   -2.098892|    0.604862|    0.457804|    3.312296|    1.697461|    0.134148|
|         175|           0|   -2.099253|    0.589646|    0.442107|    3.316613|    1.690097|    0.133404|
|         176|           0|   -2.100118|    0.572800|    0.424507|    3.320941|    1.682561|    0.132672|
|         177|           0|   -2.101706|    0.554448|    0.405352|    3.324762|    1.674981|    0.131965|
|         178|           0|   -2.104127|    0.534846|    0.385142|    3.327747|    1.667486|    0.131295|
|         179|           0|   -2.107571|    0.514360|    0.364482|    3.329511|    1.660197|    0.130672|
|         180|           0|   -2.112101|    0.493489|    0.344225|    3.329805|    1.653225|    0.130103|
+-----------------------------------------------------------------------+
|        File Writing Summary       |              Filename             |
+-----------------------------------------------------------------------+
|SU2 restart                        |solution_flow.dat                  |
|Paraview                           |flow.vtu                           |
|Paraview surface                   |surface_flow.vtu                   |
+-----------------------------------------------------------------------+

Writing the forces breakdown file (forces_breakdown.dat).
+-------------------------------------------------------------------------------------------------------+
|  Inner_Iter|   Time_Iter|    rms[Rho]|   rms[RhoU]|   rms[RhoV]|   rms[RhoE]|          CL|          CD|
+-------------------------------------------------------------------------------------------------------+
|         181|           0|   -2.117592|    0.472725|    0.325315|    3.328678|    1.646672|    0.129595|
|         182|           0|   -2.124172|    0.452694|    0.308526|    3.325863|    1.640628|    0.129152|
|         183|           0|   -2.131962|    0.434126|    0.294956|    3.321032|    1.635171|    0.128774|
|         184|           0|   -2.140764|    0.418071|    0.285342|    3.314418|    1.630369|    0.128463|
|         185|           0|   -2.150242|    0.405149|    0.280085|    3.306320|    1.626286|    0.128219|
|         186|           0|   -2.160224|    0.395697|    0.278964|    3.296825|    1.622966|    0.128041|
|         187|           0|   -2.170535|    0.389968|    0.281442|    3.286060|    1.620444|    0.127926|
|         188|           0|   -2.181038|    0.387765|    0.286742|    3.274132|    1.618745|    0.127872|
|         189|           0|   -2.191653|    0.388664|    0.293874|    3.261146|    1.617882|    0.127875|
|         190|           0|   -2.201973|    0.391921|    0.301826|    3.247574|    1.617851|    0.127931|
+-----------------------------------------------------------------------+
|        File Writing Summary       |              Filename             |
+-----------------------------------------------------------------------+
|SU2 restart                        |solution_flow.dat                  |
|Paraview                           |flow.vtu                           |
|Paraview surface                   |surface_flow.vtu                   |
+-----------------------------------------------------------------------+

Writing the forces breakdown file (forces_breakdown.dat).
+-------------------------------------------------------------------------------------------------------+
|  Inner_Iter|   Time_Iter|    rms[Rho]|   rms[RhoU]|   rms[RhoV]|   rms[RhoE]|          CL|          CD|
+-------------------------------------------------------------------------------------------------------+
|         191|           0|   -2.211730|    0.396871|    0.309868|    3.233786|    1.618638|    0.128033|
|         192|           0|   -2.220825|    0.402886|    0.317297|    3.220048|    1.620217|    0.128175|
|         193|           0|   -2.229217|    0.409349|    0.323599|    3.206623|    1.622549|    0.128349|
|         194|           0|   -2.236341|    0.415580|    0.328389|    3.194415|    1.625589|    0.128550|
|         195|           0|   -2.242263|    0.420995|    0.331323|    3.183684|    1.629281|    0.128769|
|         196|           0|   -2.247082|    0.425269|    0.332240|    3.174686|    1.633559|    0.128999|
|         197|           0|   -2.250793|    0.428170|    0.330988|    3.167733|    1.638351|    0.129232|
|         198|           0|   -2.253588|    0.429552|    0.327543|    3.162839|    1.643581|    0.129460|
|         199|           0|   -2.255657|    0.429050|    0.321884|    3.159914|    1.649165|    0.129676|
|         200|           0|   -2.257240|    0.426930|    0.314083|    3.158699|    1.655020|    0.129874|
+-----------------------------------------------------------------------+
|        File Writing Summary       |              Filename             |
+-----------------------------------------------------------------------+
|SU2 restart                        |solution_flow.dat                  |
|Paraview                           |flow.vtu                           |
|Paraview surface                   |surface_flow.vtu                   |
+-----------------------------------------------------------------------+

Writing the forces breakdown file (forces_breakdown.dat).
+-------------------------------------------------------------------------------------------------------+
|  Inner_Iter|   Time_Iter|    rms[Rho]|   rms[RhoU]|   rms[RhoV]|   rms[RhoE]|          CL|          CD|
+-------------------------------------------------------------------------------------------------------+
|         201|           0|   -2.258588|    0.423313|    0.304241|    3.158853|    1.661059|    0.130047|
|         202|           0|   -2.259862|    0.418188|    0.292373|    3.160035|    1.667193|    0.130190|
|         203|           0|   -2.261340|    0.411685|    0.278600|    3.161722|    1.673339|    0.130298|
|         204|           0|   -2.263302|    0.403876|    0.263216|    3.163422|    1.679409|    0.130369|
|         205|           0|   -2.265954|    0.395053|    0.246557|    3.164732|    1.685326|    0.130399|
|         206|           0|   -2.269504|    0.385448|    0.228930|    3.165224|    1.691014|    0.130387|
|         207|           0|   -2.274111|    0.375346|    0.210918|    3.164562|    1.696400|    0.130331|
|         208|           0|   -2.279764|    0.365062|    0.193169|    3.162612|    1.701422|    0.130231|
|         209|           0|   -2.286366|    0.354959|    0.176375|    3.159387|    1.706022|    0.130089|
|         210|           0|   -2.293927|    0.345340|    0.161292|    3.154727|    1.710150|    0.129906|
+-----------------------------------------------------------------------+
|        File Writing Summary       |              Filename             |
+-----------------------------------------------------------------------+
|SU2 restart                        |solution_flow.dat                  |
|Paraview                           |flow.vtu                           |
|Paraview surface                   |surface_flow.vtu                   |
+-----------------------------------------------------------------------+

Writing the forces breakdown file (forces_breakdown.dat).
+-------------------------------------------------------------------------------------------------------+
|  Inner_Iter|   Time_Iter|    rms[Rho]|   rms[RhoU]|   rms[RhoV]|   rms[RhoE]|          CL|          CD|
+-------------------------------------------------------------------------------------------------------+
|         211|           0|   -2.302378|    0.336520|    0.148735|    3.148600|    1.713763|    0.129685|
|         212|           0|   -2.311807|    0.328777|    0.139256|    3.140782|    1.716830|    0.129429|
|         213|           0|   -2.322185|    0.322366|    0.133067|    3.131230|    1.719328|    0.129142|
|         214|           0|   -2.333392|    0.317420|    0.130199|    3.119997|    1.721243|    0.128828|
|         215|           0|   -2.345076|    0.313789|    0.130318|    3.107376|    1.722570|    0.128494|
|         216|           0|   -2.357036|    0.311283|    0.132920|    3.093499|    1.723316|    0.128144|
|         217|           0|   -2.368990|    0.309709|    0.137265|    3.078649|    1.723494|    0.127785|
|         218|           0|   -2.380751|    0.308683|    0.142501|    3.062996|    1.723128|    0.127424|
|         219|           0|   -2.391981|    0.307906|    0.147911|    3.046964|    1.722244|    0.127066|
|         220|           0|   -2.402323|    0.307114|    0.152949|    3.031133|    1.720879|    0.126719|
+-----------------------------------------------------------------------+
|        File Writing Summary       |              Filename             |
+-----------------------------------------------------------------------+
|SU2 restart                        |solution_flow.dat                  |
|Paraview                           |flow.vtu                           |
|Paraview surface                   |surface_flow.vtu                   |
+-----------------------------------------------------------------------+

Writing the forces breakdown file (forces_breakdown.dat).
+-------------------------------------------------------------------------------------------------------+
|  Inner_Iter|   Time_Iter|    rms[Rho]|   rms[RhoU]|   rms[RhoV]|   rms[RhoE]|          CL|          CD|
+-------------------------------------------------------------------------------------------------------+
|         221|           0|   -2.411565|    0.306024|    0.157120|    3.016019|    1.719075|    0.126388|
|         222|           0|   -2.419620|    0.304346|    0.160035|    3.002044|    1.716881|    0.126079|
|         223|           0|   -2.426412|    0.301831|    0.161373|    2.989680|    1.714349|    0.125798|
|         224|           0|   -2.431941|    0.298204|    0.160924|    2.979347|    1.711535|    0.125550|
|         225|           0|   -2.436183|    0.293325|    0.158550|    2.971469|    1.708498|    0.125339|
|         226|           0|   -2.439308|    0.287110|    0.154179|    2.966116|    1.705297|    0.125169|
|         227|           0|   -2.441509|    0.279438|    0.147755|    2.963233|    1.701995|    0.125044|
|         228|           0|   -2.443164|    0.270247|    0.139345|    2.962369|    1.698649|    0.124966|
|         229|           0|   -2.444537|    0.259517|    0.128983|    2.963127|    1.695321|    0.124937|
|         230|           0|   -2.445835|    0.247223|    0.116794|    2.965049|    1.692067|    0.124957|
+-----------------------------------------------------------------------+
|        File Writing Summary       |              Filename             |
+-----------------------------------------------------------------------+
|SU2 restart                        |solution_flow.dat                  |
|Paraview                           |flow.vtu                           |
|Paraview surface                   |surface_flow.vtu                   |
+-----------------------------------------------------------------------+

Writing the forces breakdown file (forces_breakdown.dat).
+-------------------------------------------------------------------------------------------------------+
|  Inner_Iter|   Time_Iter|    rms[Rho]|   rms[RhoU]|   rms[RhoV]|   rms[RhoE]|          CL|          CD|
+-------------------------------------------------------------------------------------------------------+
|         231|           0|   -2.447114|    0.233398|    0.103002|    2.967828|    1.688944|    0.125027|
|         232|           0|   -2.448771|    0.218114|    0.087724|    2.970735|    1.686003|    0.125147|
|         233|           0|   -2.450886|    0.201484|    0.071360|    2.973479|    1.683292|    0.125315|
|         234|           0|   -2.453692|    0.183715|    0.054351|    2.975586|    1.680855|    0.125529|
|         235|           0|   -2.457217|    0.165136|    0.037351|    2.976827|    1.678729|    0.125786|
|         236|           0|   -2.461618|    0.146128|    0.021049|    2.976877|    1.676947|    0.126083|
|         237|           0|   -2.467057|    0.127231|    0.006189|    2.975429|    1.675537|    0.126416|
|         238|           0|   -2.473443|    0.109044|   -0.006394|    2.972486|    1.674520|    0.126780|
|         239|           0|   -2.480718|    0.092181|   -0.016109|    2.968027|    1.673909|    0.127171|
|         240|           0|   -2.488846|    0.077224|   -0.022516|    2.962006|    1.673713|    0.127582|
+-----------------------------------------------------------------------+
|        File Writing Summary       |              Filename             |
+-----------------------------------------------------------------------+
|SU2 restart                        |solution_flow.dat                  |
|Paraview                           |flow.vtu                           |
|Paraview surface                   |surface_flow.vtu                   |
+-----------------------------------------------------------------------+

Writing the forces breakdown file (forces_breakdown.dat).
+-------------------------------------------------------------------------------------------------------+
|  Inner_Iter|   Time_Iter|    rms[Rho]|   rms[RhoU]|   rms[RhoV]|   rms[RhoE]|          CL|          CD|
+-------------------------------------------------------------------------------------------------------+
|         241|           0|   -2.497513|    0.064724|   -0.025491|    2.954637|    1.673933|    0.128008|
|         242|           0|   -2.506592|    0.055149|   -0.025133|    2.945983|    1.674565|    0.128442|
|         243|           0|   -2.515983|    0.048740|   -0.021842|    2.936096|    1.675599|    0.128880|
|         244|           0|   -2.525578|    0.045118|   -0.016290|    2.925030|    1.677018|    0.129314|
|         245|           0|   -2.535101|    0.043746|   -0.009301|    2.913062|    1.678801|    0.129738|
|         246|           0|   -2.544267|    0.044684|   -0.001478|    2.900614|    1.680923|    0.130146|
|         247|           0|   -2.552748|    0.047425|    0.006483|    2.888140|    1.683352|    0.130533|
|         248|           0|   -2.560562|    0.051272|    0.014025|    2.875814|    1.686056|    0.130892|
|         249|           0|   -2.567535|    0.055645|    0.020726|    2.864090|    1.688997|    0.131220|
|         250|           0|   -2.573646|    0.059961|    0.026249|    2.853254|    1.692135|    0.131512|
+-----------------------------------------------------------------------+
|        File Writing Summary       |              Filename             |
+-----------------------------------------------------------------------+
|SU2 restart                        |solution_flow.dat                  |
|Paraview                           |flow.vtu                           |
|Paraview surface                   |surface_flow.vtu                   |
+-----------------------------------------------------------------------+

Writing the forces breakdown file (forces_breakdown.dat).
+-------------------------------------------------------------------------------------------------------+
|  Inner_Iter|   Time_Iter|    rms[Rho]|   rms[RhoU]|   rms[RhoV]|   rms[RhoE]|          CL|          CD|
+-------------------------------------------------------------------------------------------------------+
|         251|           0|   -2.578926|    0.063764|    0.030355|    2.843534|    1.695428|    0.131763|
|         252|           0|   -2.583339|    0.066610|    0.032808|    2.835265|    1.698834|    0.131970|
|         253|           0|   -2.587000|    0.068434|    0.033594|    2.828610|    1.702309|    0.132131|
|         254|           0|   -2.590028|    0.069076|    0.032672|    2.823624|    1.705810|    0.132243|
|         255|           0|   -2.592673|    0.068437|    0.030058|    2.820098|    1.709294|    0.132304|
|         256|           0|   -2.595063|    0.066416|    0.025763|    2.817947|    1.712719|    0.132315|
|         257|           0|   -2.597384|    0.063008|    0.019929|    2.816905|    1.716043|    0.132274|
|         258|           0|   -2.599796|    0.058260|    0.012690|    2.816692|    1.719229|    0.132182|
|         259|           0|   -2.602544|    0.052284|    0.004198|    2.816867|    1.722242|    0.132041|
|         260|           0|   -2.605779|    0.045343|   -0.005344|    2.817091|    1.725047|    0.131853|
+-----------------------------------------------------------------------+
|        File Writing Summary       |              Filename             |
+-----------------------------------------------------------------------+
|SU2 restart                        |solution_flow.dat                  |
|Paraview                           |flow.vtu                           |
|Paraview surface                   |surface_flow.vtu                   |
+-----------------------------------------------------------------------+

Writing the forces breakdown file (forces_breakdown.dat).
+-------------------------------------------------------------------------------------------------------+
|  Inner_Iter|   Time_Iter|    rms[Rho]|   rms[RhoU]|   rms[RhoV]|   rms[RhoE]|          CL|          CD|
+-------------------------------------------------------------------------------------------------------+
|         261|           0|   -2.609657|    0.037680|   -0.015613|    2.817021|    1.727620|    0.131620|
|         262|           0|   -2.614275|    0.029695|   -0.026311|    2.816423|    1.729936|    0.131345|
|         263|           0|   -2.619687|    0.021996|   -0.037172|    2.815081|    1.731974|    0.131034|
|         264|           0|   -2.626330|    0.013017|   -0.048076|    2.812084|    1.733721|    0.130689|
|         265|           0|   -2.633845|    0.004517|   -0.058468|    2.807976|    1.735164|    0.130316|
|         266|           0|   -2.642372|   -0.003280|   -0.067996|    2.802460|    1.736299|    0.129920|
|         267|           0|   -2.651936|   -0.010125|   -0.076331|    2.795401|    1.737122|    0.129507|
|         268|           0|   -2.662455|   -0.015851|   -0.083277|    2.786774|    1.737640|    0.129083|
|         269|           0|   -2.673741|   -0.020372|   -0.088743|    2.776682|    1.737856|    0.128652|
|         270|           0|   -2.685629|   -0.023682|   -0.092714|    2.765208|    1.737785|    0.128222|
+-----------------------------------------------------------------------+
|        File Writing Summary       |              Filename             |
+-----------------------------------------------------------------------+
|SU2 restart                        |solution_flow.dat                  |
|Paraview                           |flow.vtu                           |
|Paraview surface                   |surface_flow.vtu                   |
+-----------------------------------------------------------------------+

Writing the forces breakdown file (forces_breakdown.dat).
+-------------------------------------------------------------------------------------------------------+
|  Inner_Iter|   Time_Iter|    rms[Rho]|   rms[RhoU]|   rms[RhoV]|   rms[RhoE]|          CL|          CD|
+-------------------------------------------------------------------------------------------------------+
|         271|           0|   -2.698011|   -0.025885|   -0.095389|    2.752375|    1.737442|    0.127798|
|         272|           0|   -2.710694|   -0.027171|   -0.096927|    2.738316|    1.736846|    0.127386|
|         273|           0|   -2.723419|   -0.027708|   -0.097589|    2.723261|    1.736019|    0.126991|
|         274|           0|   -2.735920|   -0.027827|   -0.097680|    2.707423|    1.734988|    0.126620|
|         275|           0|   -2.747925|   -0.027745|   -0.097564|    2.691168|    1.733779|    0.126276|
|         276|           0|   -2.759085|   -0.027853|   -0.097573|    2.675042|    1.732421|    0.125964|
|         277|           0|   -2.769188|   -0.028387|   -0.097974|    2.659515|    1.730945|    0.125689|
|         278|           0|   -2.778110|   -0.029545|   -0.098986|    2.645022|    1.729382|    0.125454|
|         279|           0|   -2.785732|   -0.031568|   -0.100801|    2.632046|    1.727763|    0.125262|
|         280|           0|   -2.792069|   -0.034644|   -0.103564|    2.620959|    1.726120|    0.125115|
+-----------------------------------------------------------------------+
|        File Writing Summary       |              Filename             |
+-----------------------------------------------------------------------+
|SU2 restart                        |solution_flow.dat                  |
|Paraview                           |flow.vtu                           |
|Paraview surface                   |surface_flow.vtu                   |
+-----------------------------------------------------------------------+

Writing the forces breakdown file (forces_breakdown.dat).
+-------------------------------------------------------------------------------------------------------+
|  Inner_Iter|   Time_Iter|    rms[Rho]|   rms[RhoU]|   rms[RhoV]|   rms[RhoE]|          CL|          CD|
+-------------------------------------------------------------------------------------------------------+
|         281|           0|   -2.797205|   -0.038834|   -0.107349|    2.612037|    1.724484|    0.125015|
|         282|           0|   -2.801250|   -0.044278|   -0.112197|    2.605441|    1.722886|    0.124963|
|         283|           0|   -2.804350|   -0.051014|   -0.118138|    2.601191|    1.721353|    0.124959|
|         284|           0|   -2.806723|   -0.059107|   -0.125130|    2.599089|    1.719916|    0.125004|
|         285|           0|   -2.808648|   -0.068626|   -0.133081|    2.598737|    1.718597|    0.125097|
|         286|           0|   -2.810323|   -0.079576|   -0.141834|    2.599752|    1.717422|    0.125235|
|         287|           0|   -2.812024|   -0.091868|   -0.151206|    2.601610|    1.716411|    0.125417|
|         288|           0|   -2.814034|   -0.105439|   -0.160988|    2.603759|    1.715580|    0.125641|
|         289|           0|   -2.816513|   -0.120104|   -0.170908|    2.605797|    1.714944|    0.125903|
|         290|           0|   -2.819542|   -0.135655|   -0.180666|    2.607426|    1.714516|    0.126199|
+-----------------------------------------------------------------------+
|        File Writing Summary       |              Filename             |
+-----------------------------------------------------------------------+
|SU2 restart                        |solution_flow.dat                  |
|Paraview                           |flow.vtu                           |
|Paraview surface                   |surface_flow.vtu                   |
+-----------------------------------------------------------------------+

Writing the forces breakdown file (forces_breakdown.dat).
+-------------------------------------------------------------------------------------------------------+
|  Inner_Iter|   Time_Iter|    rms[Rho]|   rms[RhoU]|   rms[RhoV]|   rms[RhoE]|          CL|          CD|
+-------------------------------------------------------------------------------------------------------+
|         291|           0|   -2.823267|   -0.151862|   -0.189918|    2.608292|    1.714303|    0.126525|
|         292|           0|   -2.827753|   -0.168441|   -0.198323|    2.608166|    1.714310|    0.126878|
|         293|           0|   -2.832991|   -0.185035|   -0.205538|    2.606930|    1.714538|    0.127251|
|         294|           0|   -2.839021|   -0.201187|   -0.211354|    2.604422|    1.714987|    0.127641|
|         295|           0|   -2.845764|   -0.216425|   -0.215629|    2.600615|    1.715651|    0.128041|
|         296|           0|   -2.853237|   -0.230284|   -0.218275|    2.595393|    1.716522|    0.128448|
|         297|           0|   -2.861315|   -0.242354|   -0.219289|    2.588818|    1.717589|    0.128854|
|         298|           0|   -2.869799|   -0.252291|   -0.218791|    2.581036|    1.718839|    0.129256|
|         299|           0|   -2.878526|   -0.259894|   -0.216959|    2.572163|    1.720257|    0.129649|
|         300|           0|   -2.887378|   -0.265104|   -0.214064|    2.562308|    1.721826|    0.130026|
+-----------------------------------------------------------------------+
|        File Writing Summary       |              Filename             |
+-----------------------------------------------------------------------+
|SU2 restart                        |solution_flow.dat                  |
|Paraview                           |flow.vtu                           |
|Paraview surface                   |surface_flow.vtu                   |
+-----------------------------------------------------------------------+

Writing the forces breakdown file (forces_breakdown.dat).
+-------------------------------------------------------------------------------------------------------+
|  Inner_Iter|   Time_Iter|    rms[Rho]|   rms[RhoU]|   rms[RhoV]|   rms[RhoE]|          CL|          CD|
+-------------------------------------------------------------------------------------------------------+
|         301|           0|   -2.896191|   -0.268121|   -0.210406|    2.551644|    1.723526|    0.130385|
|         302|           0|   -2.904682|   -0.269195|   -0.206321|    2.540504|    1.725338|    0.130720|
|         303|           0|   -2.912769|   -0.268692|   -0.202113|    2.529086|    1.727238|    0.131028|
|         304|           0|   -2.920313|   -0.267059|   -0.198052|    2.517684|    1.729206|    0.131305|
|         305|           0|   -2.927127|   -0.264721|   -0.194361|    2.506718|    1.731219|    0.131548|
|         306|           0|   -2.933151|   -0.262137|   -0.191230|    2.496490|    1.733253|    0.131754|
|         307|           0|   -2.938437|   -0.259639|   -0.188794|    2.487182|    1.735287|    0.131923|
|         308|           0|   -2.943059|   -0.257532|   -0.187153|    2.478959|    1.737297|    0.132051|
|         309|           0|   -2.947095|   -0.256094|   -0.186359|    2.471983|    1.739263|    0.132138|
|         310|           0|   -2.950696|   -0.255427|   -0.186507|    2.466260|    1.741164|    0.132184|
+-----------------------------------------------------------------------+
|        File Writing Summary       |              Filename             |
+-----------------------------------------------------------------------+
|SU2 restart                        |solution_flow.dat                  |
|Paraview                           |flow.vtu                           |
|Paraview surface                   |surface_flow.vtu                   |
+-----------------------------------------------------------------------+

Writing the forces breakdown file (forces_breakdown.dat).
+-------------------------------------------------------------------------------------------------------+
|  Inner_Iter|   Time_Iter|    rms[Rho]|   rms[RhoU]|   rms[RhoV]|   rms[RhoE]|          CL|          CD|
+-------------------------------------------------------------------------------------------------------+
|         311|           0|   -2.954000|   -0.255665|   -0.187606|    2.461762|    1.742982|    0.132189|
|         312|           0|   -2.957157|   -0.256812|   -0.189627|    2.458376|    1.744701|    0.132153|
|         313|           0|   -2.960337|   -0.258868|   -0.192523|    2.455898|    1.746303|    0.132078|
|         314|           0|   -2.963737|   -0.261767|   -0.196205|    2.454046|    1.747777|    0.131965|
|         315|           0|   -2.967629|   -0.265477|   -0.200564|    2.452391|    1.749110|    0.131817|
|         316|           0|   -2.972143|   -0.269899|   -0.205484|    2.450663|    1.750294|    0.131636|
|         317|           0|   -2.977367|   -0.274904|   -0.210840|    2.448629|    1.751323|    0.131426|
|         318|           0|   -2.983414|   -0.280337|   -0.216480|    2.446023|    1.752191|    0.131189|
|         319|           0|   -2.990363|   -0.286010|   -0.222275|    2.442634|    1.752897|    0.130930|
|         320|           0|   -2.998236|   -0.291741|   -0.228101|    2.438309|    1.753441|    0.130653|
+-----------------------------------------------------------------------+
|        File Writing Summary       |              Filename             |
+-----------------------------------------------------------------------+
|SU2 restart                        |solution_flow.dat                  |
|Paraview                           |flow.vtu                           |
|Paraview surface                   |surface_flow.vtu                   |
+-----------------------------------------------------------------------+

Writing the forces breakdown file (forces_breakdown.dat).
+-------------------------------------------------------------------------------------------------------+
|  Inner_Iter|   Time_Iter|    rms[Rho]|   rms[RhoU]|   rms[RhoV]|   rms[RhoE]|          CL|          CD|
+-------------------------------------------------------------------------------------------------------+
|         321|           0|   -3.007065|   -0.297374|   -0.233829|    2.432873|    1.753827|    0.130361|
|         322|           0|   -3.016908|   -0.302741|   -0.239367|    2.426138|    1.754057|    0.130059|
|         323|           0|   -3.027617|   -0.307718|   -0.244634|    2.418153|    1.754140|    0.129751|
|         324|           0|   -3.039088|   -0.312097|   -0.249584|    2.408936|    1.754083|    0.129442|
|         325|           0|   -3.049888|   -0.309679|   -0.254025|    2.401204|    1.753897|    0.129136|
|         326|           0|   -3.062785|   -0.311470|   -0.258202|    2.389454|    1.753593|    0.128836|
|         327|           0|   -3.074630|   -0.308383|   -0.261814|    2.379219|    1.753184|    0.128547|
|         328|           0|   -3.085732|   -0.302317|   -0.264970|    2.369678|    1.752685|    0.128272|
|         329|           0|   -3.095202|   -0.292308|   -0.267655|    2.362130|    1.752110|    0.128016|
|         330|           0|   -3.102637|   -0.278809|   -0.269972|    2.356961|    1.751474|    0.127781|
+-----------------------------------------------------------------------+
|        File Writing Summary       |              Filename             |
+-----------------------------------------------------------------------+
|SU2 restart                        |solution_flow.dat                  |
|Paraview                           |flow.vtu                           |
|Paraview surface                   |surface_flow.vtu                   |
+-----------------------------------------------------------------------+

Writing the forces breakdown file (forces_breakdown.dat).
+-------------------------------------------------------------------------------------------------------+
|  Inner_Iter|   Time_Iter|    rms[Rho]|   rms[RhoU]|   rms[RhoV]|   rms[RhoE]|          CL|          CD|
+-------------------------------------------------------------------------------------------------------+
|         331|           0|   -3.108056|   -0.263601|   -0.272159|    2.353699|    1.750793|    0.127570|
|         332|           0|   -3.112415|   -0.249977|   -0.274616|    2.350203|    1.750083|    0.127386|
|         333|           0|   -3.117182|   -0.241792|   -0.277800|    2.343417|    1.749361|    0.127230|
|         334|           0|   -3.123115|   -0.241030|   -0.281947|    2.331818|    1.748641|    0.127105|
|         335|           0|   -3.129975|   -0.247730|   -0.286960|    2.316049|    1.747940|    0.127012|
|         336|           0|   -3.136890|   -0.259706|   -0.292333|    2.298698|    1.747271|    0.126951|
|         337|           0|   -3.144515|   -0.275673|   -0.297729|    2.282419|    1.746648|    0.126923|
|         338|           0|   -3.152214|   -0.291926|   -0.303115|    2.267618|    1.746084|    0.126928|
|         339|           0|   -3.159856|   -0.307858|   -0.308593|    2.254805|    1.745590|    0.126966|
|         340|           0|   -3.167243|   -0.323443|   -0.314224|    2.244197|    1.745176|    0.127034|
+-----------------------------------------------------------------------+
|        File Writing Summary       |              Filename             |
+-----------------------------------------------------------------------+
|SU2 restart                        |solution_flow.dat                  |
|Paraview                           |flow.vtu                           |
|Paraview surface                   |surface_flow.vtu                   |
+-----------------------------------------------------------------------+

Writing the forces breakdown file (forces_breakdown.dat).
+-------------------------------------------------------------------------------------------------------+
|  Inner_Iter|   Time_Iter|    rms[Rho]|   rms[RhoU]|   rms[RhoV]|   rms[RhoE]|          CL|          CD|
+-------------------------------------------------------------------------------------------------------+
|         341|           0|   -3.174241|   -0.338799|   -0.320013|    2.235809|    1.744851|    0.127133|
|         342|           0|   -3.180730|   -0.353931|   -0.325871|    2.229676|    1.744621|    0.127260|
|         343|           0|   -3.186785|   -0.368814|   -0.331682|    2.225460|    1.744494|    0.127414|
|         344|           0|   -3.192511|   -0.383412|   -0.337335|    2.222730|    1.744471|    0.127591|
|         345|           0|   -3.198018|   -0.397709|   -0.342736|    2.221075|    1.744556|    0.127789|
|         346|           0|   -3.203490|   -0.411731|   -0.347818|    2.219971|    1.744750|    0.128006|
|         347|           0|   -3.209133|   -0.425529|   -0.352529|    2.218874|    1.745052|    0.128239|
|         348|           0|   -3.215100|   -0.439088|   -0.356812|    2.217377|    1.745460|    0.128484|
[...]
|         905|           0|   -5.503342|   -2.402216|   -2.161602|   -0.014561|    1.802975|    0.131316|
|         906|           0|   -5.513580|   -2.405549|   -2.165040|   -0.024086|    1.802981|    0.131316|
|         907|           0|   -5.519359|   -2.408872|   -2.168452|   -0.029559|    1.802986|    0.131316|
|         908|           0|   -5.524108|   -2.412261|   -2.171875|   -0.035219|    1.802991|    0.131316|
|         909|           0|   -5.514754|   -2.415587|   -2.175274|   -0.026576|    1.802995|    0.131316|
|         910|           0|   -5.525119|   -2.418967|   -2.178697|   -0.036456|    1.803000|    0.131317|
+-----------------------------------------------------------------------+
|        File Writing Summary       |              Filename             |
+-----------------------------------------------------------------------+
|SU2 restart                        |solution_flow.dat                  |
|Paraview                           |flow.vtu                           |
|Paraview surface                   |surface_flow.vtu                   |
+-----------------------------------------------------------------------+

Writing the forces breakdown file (forces_breakdown.dat).
+-------------------------------------------------------------------------------------------------------+
|  Inner_Iter|   Time_Iter|    rms[Rho]|   rms[RhoU]|   rms[RhoV]|   rms[RhoE]|          CL|          CD|
+-------------------------------------------------------------------------------------------------------+
|         911|           0|   -5.529200|   -2.422332|   -2.182076|   -0.040299|    1.803005|    0.131317|
|         912|           0|   -5.525563|   -2.425647|   -2.185496|   -0.035437|    1.803010|    0.131317|
|         913|           0|   -5.517227|   -2.429032|   -2.188897|   -0.028500|    1.803015|    0.131317|
|         914|           0|   -5.531656|   -2.432525|   -2.192307|   -0.043395|    1.803019|    0.131317|
|         915|           0|   -5.525024|   -2.435759|   -2.195714|   -0.033240|    1.803024|    0.131317|
|         916|           0|   -5.534890|   -2.439315|   -2.199118|   -0.045528|    1.803029|    0.131318|
|         917|           0|   -5.527245|   -2.442758|   -2.202482|   -0.039056|    1.803033|    0.131318|
|         918|           0|   -5.535860|   -2.446208|   -2.205881|   -0.047022|    1.803038|    0.131318|
|         919|           0|   -5.541917|   -2.449667|   -2.209272|   -0.052893|    1.803042|    0.131318|
|         920|           0|   -5.543482|   -2.453122|   -2.212647|   -0.054401|    1.803046|    0.131318|
+-----------------------------------------------------------------------+
|        File Writing Summary       |              Filename             |
+-----------------------------------------------------------------------+
|SU2 restart                        |solution_flow.dat                  |
|Paraview                           |flow.vtu                           |
|Paraview surface                   |surface_flow.vtu                   |
+-----------------------------------------------------------------------+

Writing the forces breakdown file (forces_breakdown.dat).
+-------------------------------------------------------------------------------------------------------+
|  Inner_Iter|   Time_Iter|    rms[Rho]|   rms[RhoU]|   rms[RhoV]|   rms[RhoE]|          CL|          CD|
+-------------------------------------------------------------------------------------------------------+
|         921|           0|   -5.530401|   -2.456528|   -2.215996|   -0.042160|    1.803051|    0.131318|
|         922|           0|   -5.543562|   -2.460050|   -2.219385|   -0.055227|    1.803055|    0.131318|
|         923|           0|   -5.538269|   -2.463337|   -2.222746|   -0.046527|    1.803060|    0.131319|
|         924|           0|   -5.545448|   -2.466921|   -2.226045|   -0.056531|    1.803064|    0.131319|
|         925|           0|   -5.536022|   -2.470365|   -2.229390|   -0.048162|    1.803069|    0.131319|
|         926|           0|   -5.549490|   -2.473831|   -2.232770|   -0.061255|    1.803073|    0.131319|
|         927|           0|   -5.555205|   -2.477040|   -2.236083|   -0.065713|    1.803078|    0.131319|
|         928|           0|   -5.547562|   -2.480356|   -2.239429|   -0.056238|    1.803082|    0.131319|
|         929|           0|   -5.538769|   -2.483838|   -2.242686|   -0.049727|    1.803086|    0.131320|
|         930|           0|   -5.542365|   -2.487087|   -2.245923|   -0.051690|    1.803091|    0.131320|
+-----------------------------------------------------------------------+
|        File Writing Summary       |              Filename             |
+-----------------------------------------------------------------------+
|SU2 restart                        |solution_flow.dat                  |
|Paraview                           |flow.vtu                           |
|Paraview surface                   |surface_flow.vtu                   |
+-----------------------------------------------------------------------+

Writing the forces breakdown file (forces_breakdown.dat).
+-------------------------------------------------------------------------------------------------------+
|  Inner_Iter|   Time_Iter|    rms[Rho]|   rms[RhoU]|   rms[RhoV]|   rms[RhoE]|          CL|          CD|
+-------------------------------------------------------------------------------------------------------+
|         931|           0|   -5.538063|   -2.490079|   -2.249234|   -0.044058|    1.803095|    0.131320|
|         932|           0|   -5.550902|   -2.493621|   -2.252557|   -0.058552|    1.803099|    0.131320|
|         933|           0|   -5.541558|   -2.497285|   -2.255828|   -0.050340|    1.803103|    0.131320|
|         934|           0|   -5.557265|   -2.501267|   -2.259152|   -0.067327|    1.803108|    0.131321|
|         935|           0|   -5.565506|   -2.505212|   -2.262474|   -0.076573|    1.803112|    0.131321|
|         936|           0|   -5.566602|   -2.508912|   -2.265802|   -0.078058|    1.803116|    0.131321|
|         937|           0|   -5.554166|   -2.512433|   -2.269082|   -0.066981|    1.803121|    0.131321|
|         938|           0|   -5.563521|   -2.515934|   -2.272365|   -0.075991|    1.803125|    0.131321|
|         939|           0|   -5.570262|   -2.519384|   -2.275652|   -0.082442|    1.803130|    0.131321|
|         940|           0|   -5.561779|   -2.522601|   -2.278941|   -0.071302|    1.803134|    0.131321|
+-----------------------------------------------------------------------+
|        File Writing Summary       |              Filename             |
+-----------------------------------------------------------------------+
|SU2 restart                        |solution_flow.dat                  |
|Paraview                           |flow.vtu                           |
|Paraview surface                   |surface_flow.vtu                   |
+-----------------------------------------------------------------------+

Writing the forces breakdown file (forces_breakdown.dat).
+-------------------------------------------------------------------------------------------------------+
|  Inner_Iter|   Time_Iter|    rms[Rho]|   rms[RhoU]|   rms[RhoV]|   rms[RhoE]|          CL|          CD|
+-------------------------------------------------------------------------------------------------------+
|         941|           0|   -5.551098|   -2.525994|   -2.282133|   -0.062975|    1.803138|    0.131321|
|         942|           0|   -5.565360|   -2.529476|   -2.285449|   -0.076833|    1.803143|    0.131321|
|         943|           0|   -5.563641|   -2.532703|   -2.288744|   -0.072303|    1.803147|    0.131321|
|         944|           0|   -5.573432|   -2.536263|   -2.292010|   -0.084621|    1.803151|    0.131321|
|         945|           0|   -5.563209|   -2.539625|   -2.295263|   -0.075586|    1.803155|    0.131321|
|         946|           0|   -5.558736|   -2.542672|   -2.298567|   -0.066491|    1.803159|    0.131321|
|         947|           0|   -5.577564|   -2.546269|   -2.301847|   -0.088023|    1.803162|    0.131321|
|         948|           0|   -5.583650|   -2.549694|   -2.305126|   -0.095054|    1.803166|    0.131321|
|         949|           0|   -5.566742|   -2.552898|   -2.308346|   -0.078946|    1.803170|    0.131321|
|         950|           0|   -5.580570|   -2.556285|   -2.311663|   -0.092362|    1.803173|    0.131322|
+-----------------------------------------------------------------------+
|        File Writing Summary       |              Filename             |
+-----------------------------------------------------------------------+
|SU2 restart                        |solution_flow.dat                  |
|Paraview                           |flow.vtu                           |
|Paraview surface                   |surface_flow.vtu                   |
+-----------------------------------------------------------------------+

Writing the forces breakdown file (forces_breakdown.dat).
+-------------------------------------------------------------------------------------------------------+
|  Inner_Iter|   Time_Iter|    rms[Rho]|   rms[RhoU]|   rms[RhoV]|   rms[RhoE]|          CL|          CD|
+-------------------------------------------------------------------------------------------------------+
|         951|           0|   -5.572078|   -2.559255|   -2.314968|   -0.079733|    1.803177|    0.131322|
|         952|           0|   -5.583201|   -2.562787|   -2.318212|   -0.094425|    1.803181|    0.131322|
|         953|           0|   -5.570283|   -2.566039|   -2.321505|   -0.081815|    1.803184|    0.131322|
|         954|           0|   -5.581321|   -2.569353|   -2.324854|   -0.092302|    1.803188|    0.131322|
|         955|           0|   -5.591495|   -2.572712|   -2.328142|   -0.103090|    1.803191|    0.131322|
|         956|           0|   -5.590275|   -2.575932|   -2.331472|   -0.100924|    1.803195|    0.131322|
|         957|           0|   -5.575023|   -2.579140|   -2.334747|   -0.086976|    1.803198|    0.131322|
|         958|           0|   -5.586797|   -2.582462|   -2.337979|   -0.098974|    1.803201|    0.131322|
|         959|           0|   -5.576951|   -2.585334|   -2.341345|   -0.084123|    1.803205|    0.131323|
|         960|           0|   -5.593001|   -2.588924|   -2.344719|   -0.103567|    1.803208|    0.131323|
+-----------------------------------------------------------------------+
|        File Writing Summary       |              Filename             |
+-----------------------------------------------------------------------+
|SU2 restart                        |solution_flow.dat                  |
|Paraview                           |flow.vtu                           |
|Paraview surface                   |surface_flow.vtu                   |
+-----------------------------------------------------------------------+

Writing the forces breakdown file (forces_breakdown.dat).
+-------------------------------------------------------------------------------------------------------+
|  Inner_Iter|   Time_Iter|    rms[Rho]|   rms[RhoU]|   rms[RhoV]|   rms[RhoE]|          CL|          CD|
+-------------------------------------------------------------------------------------------------------+
|         961|           0|   -5.581348|   -2.592186|   -2.348006|   -0.093359|    1.803212|    0.131323|
|         962|           0|   -5.595932|   -2.595542|   -2.351370|   -0.107853|    1.803215|    0.131323|
|         963|           0|   -5.605431|   -2.598865|   -2.354703|   -0.117382|    1.803218|    0.131323|
|         964|           0|   -5.594291|   -2.601818|   -2.358021|   -0.103385|    1.803221|    0.131323|
|         965|           0|   -5.583204|   -2.605080|   -2.361326|   -0.094684|    1.803224|    0.131323|
|         966|           0|   -5.596093|   -2.608386|   -2.364709|   -0.106699|    1.803227|    0.131323|
|         967|           0|   -5.581117|   -2.611133|   -2.367958|   -0.087599|    1.803231|    0.131324|
|         968|           0|   -5.598950|   -2.614809|   -2.371374|   -0.109431|    1.803233|    0.131324|
|         969|           0|   -5.590989|   -2.618140|   -2.374751|   -0.103113|    1.803236|    0.131324|
|         970|           0|   -5.604673|   -2.621472|   -2.378160|   -0.116341|    1.803239|    0.131324|
+-----------------------------------------------------------------------+
|        File Writing Summary       |              Filename             |
+-----------------------------------------------------------------------+
|SU2 restart                        |solution_flow.dat                  |
|Paraview                           |flow.vtu                           |
|Paraview surface                   |surface_flow.vtu                   |
+-----------------------------------------------------------------------+

Writing the forces breakdown file (forces_breakdown.dat).
+-------------------------------------------------------------------------------------------------------+
|  Inner_Iter|   Time_Iter|    rms[Rho]|   rms[RhoU]|   rms[RhoV]|   rms[RhoE]|          CL|          CD|
+-------------------------------------------------------------------------------------------------------+
|         971|           0|   -5.613105|   -2.624789|   -2.381553|   -0.124365|    1.803242|    0.131324|
|         972|           0|   -5.594429|   -2.627607|   -2.384800|   -0.102840|    1.803245|    0.131324|
|         973|           0|   -5.584371|   -2.630943|   -2.388191|   -0.095295|    1.803247|    0.131324|
|         974|           0|   -5.606937|   -2.634515|   -2.391672|   -0.118461|    1.803250|    0.131324|
|         975|           0|   -5.606322|   -2.637602|   -2.395058|   -0.115591|    1.803253|    0.131324|
|         976|           0|   -5.611225|   -2.640964|   -2.398415|   -0.122177|    1.803256|    0.131324|
|         977|           0|   -5.596710|   -2.644339|   -2.401757|   -0.108613|    1.803259|    0.131324|
|         978|           0|   -5.585730|   -2.647286|   -2.405175|   -0.091718|    1.803262|    0.131324|
|         979|           0|   -5.604503|   -2.651218|   -2.408434|   -0.114422|    1.803265|    0.131324|
|         980|           0|   -5.618458|   -2.655044|   -2.411843|   -0.130522|    1.803267|    0.131324|
+-----------------------------------------------------------------------+
|        File Writing Summary       |              Filename             |
+-----------------------------------------------------------------------+
|SU2 restart                        |solution_flow.dat                  |
|Paraview                           |flow.vtu                           |
|Paraview surface                   |surface_flow.vtu                   |
+-----------------------------------------------------------------------+

Writing the forces breakdown file (forces_breakdown.dat).
+-------------------------------------------------------------------------------------------------------+
|  Inner_Iter|   Time_Iter|    rms[Rho]|   rms[RhoU]|   rms[RhoV]|   rms[RhoE]|          CL|          CD|
+-------------------------------------------------------------------------------------------------------+
|         981|           0|   -5.602017|   -2.658427|   -2.415178|   -0.115034|    1.803271|    0.131325|
|         982|           0|   -5.613123|   -2.661937|   -2.418539|   -0.125226|    1.803273|    0.131325|
|         983|           0|   -5.601146|   -2.664840|   -2.421880|   -0.108099|    1.803277|    0.131325|
|         984|           0|   -5.613151|   -2.668705|   -2.425182|   -0.123798|    1.803279|    0.131325|
|         985|           0|   -5.602620|   -2.672287|   -2.428431|   -0.115700|    1.803282|    0.131325|
|         986|           0|   -5.619416|   -2.675949|   -2.431782|   -0.132585|    1.803285|    0.131325|
|         987|           0|   -5.626908|   -2.679473|   -2.435058|   -0.139707|    1.803288|    0.131325|
|         988|           0|   -5.621678|   -2.682740|   -2.438338|   -0.133348|    1.803290|    0.131325|
|         989|           0|   -5.601140|   -2.685950|   -2.441572|   -0.113163|    1.803293|    0.131325|
|         990|           0|   -5.617820|   -2.689532|   -2.444881|   -0.129993|    1.803296|    0.131325|
+-----------------------------------------------------------------------+
|        File Writing Summary       |              Filename             |
+-----------------------------------------------------------------------+
|SU2 restart                        |solution_flow.dat                  |
|Paraview                           |flow.vtu                           |
|Paraview surface                   |surface_flow.vtu                   |
+-----------------------------------------------------------------------+

Writing the forces breakdown file (forces_breakdown.dat).
+-------------------------------------------------------------------------------------------------------+
|  Inner_Iter|   Time_Iter|    rms[Rho]|   rms[RhoU]|   rms[RhoV]|   rms[RhoE]|          CL|          CD|
+-------------------------------------------------------------------------------------------------------+
|         991|           0|   -5.619443|   -2.692794|   -2.448051|   -0.130517|    1.803299|    0.131325|
|         992|           0|   -5.623964|   -2.696295|   -2.451372|   -0.135976|    1.803301|    0.131325|
|         993|           0|   -5.611301|   -2.699659|   -2.454641|   -0.124673|    1.803304|    0.131325|
|         994|           0|   -5.604846|   -2.702387|   -2.457954|   -0.112975|    1.803307|    0.131325|
|         995|           0|   -5.620731|   -2.706071|   -2.461285|   -0.131019|    1.803309|    0.131325|
|         996|           0|   -5.629069|   -2.709654|   -2.464621|   -0.140288|    1.803312|    0.131325|
|         997|           0|   -5.604354|   -2.712589|   -2.467854|   -0.115028|    1.803314|    0.131325|
|         998|           0|   -5.619981|   -2.716084|   -2.471213|   -0.130961|    1.803317|    0.131325|
|         999|           0|   -5.628010|   -2.719454|   -2.474551|   -0.138119|    1.803320|    0.131326|

----------------------------- Solver Exit -------------------------------

Maximum number of iterations reached (ITER = 1000) before convergence.
+-----------------------------------------------------------------------+
|      Convergence Field     |     Value    |   Criterion  |  Converged |
+-----------------------------------------------------------------------+
|                  Cauchy[CD]|   8.24357e-07|       < 1e-10|          No|
+-----------------------------------------------------------------------+
-------------------------------------------------------------------------
+-----------------------------------------------------------------------+
|        File Writing Summary       |              Filename             |
+-----------------------------------------------------------------------+
|SU2 restart                        |solution_flow.dat                  |
|Paraview                           |flow.vtu                           |
|Paraview surface                   |surface_flow.vtu                   |
+-----------------------------------------------------------------------+

Writing the forces breakdown file (forces_breakdown.dat).

------------------------- Solver Postprocessing -------------------------
Deleted CNumerics container.
Deleted CIntegration container.
Deleted CSolver container.
Deleted CIteration container.
Deleted CInterpolator container.
Deleted CInterface container.
Deleted CGeometry container.
Deleted CFreeFormDefBox class.
Deleted CSurfaceMovement class.
Deleted CVolumetricMovement class.
Deleted CConfig container.
Deleted nInst container.
Deleted COutput class.
-------------------------------------------------------------------------

------------------------- Exit Success (SU2_CFD) ------------------------

