
-------------------------------------------------------------------------
|    ___ _   _ ___                                                      |
|   / __| | | |_  )   Release 7.0.3 "Blackbird"                         |
|   \__ \ |_| |/ /                                                      |
|   |___/\___//___|   Suite (Computational Fluid Dynamics Code)         |
|                                                                       |
-------------------------------------------------------------------------
| SU2 Project Website: https://su2code.github.io                        |
|                                                                       |
| The SU2 Project is maintained by the SU2 Foundation                   |
| (http://su2foundation.org)                                            |
-------------------------------------------------------------------------
| Copyright 2012-2020, SU2 Contributors                                 |
|                                                                       |
| SU2 is free software; you can redistribute it and/or                  |
| modify it under the terms of the GNU Lesser General Public            |
| License as published by the Free Software Foundation; either          |
| version 2.1 of the License, or (at your option) any later version.    |
|                                                                       |
| SU2 is distributed in the hope that it will be useful,                |
| but WITHOUT ANY WARRANTY; without even the implied warranty of        |
| MERCHANTABILITY or FITNESS FOR A PARTICULAR PURPOSE. See the GNU      |
| Lesser General Public License for more details.                       |
|                                                                       |
| You should have received a copy of the GNU Lesser General Public      |
| License along with SU2. If not, see <http://www.gnu.org/licenses/>.   |
-------------------------------------------------------------------------

Parsing config file for zone 0

----------------- Physical Case Definition ( Zone 0 ) -------------------
Compressible Euler equations.
Mach number: 0.294.
Angle of attack (AoA): 10 deg, and angle of sideslip (AoS): 0 deg.
No restart solution, use the values at infinity (freestream).
Dimensional simulation.
The reference area is 10 m^2.
The semi-span will be computed using the max y(3D) value.
The reference length is 1 m.
Reference origin for moment evaluation is (0, 0, 0).
Surface(s) where the force coefficients are evaluated: Wing_1.

Surface(s) where the objective function is evaluated: airfoil.
Surface(s) plotted in the output file: Wing_1.
Surface(s) to be analyzed in detail: airfoil.
Surface(s) affected by the design variables: Wing_1.
Input mesh file name: deformed.su2

--------------- Space Numerical Integration ( Zone 0 ) ------------------
Roe (with entropy fix = 0) solver for the flow inviscid terms.
Roe with DDES's FD low-dissipation function.
Second order integration in space, with slope limiter.
Venkatakrishnan slope-limiting method, with constant: 0.05. 
The reference element size is: 1. 
Gradient for upwind reconstruction: Green-Gauss.
Gradient for viscous and source terms: Green-Gauss.

--------------- Time Numerical Integration  ( Zone 0 ) ------------------
Local time stepping (steady state simulation).
Euler implicit method for the flow equations.
FGMRES is used for solving the linear system.
Using a ILU(0) preconditioning.
Convergence criteria of the linear solver: 1e-06.
Max number of linear iterations: 5.
V Multigrid Cycle, with 3 multigrid levels.
Damping factor for the residual restriction: 0.75.
Damping factor for the correction prolongation: 0.75.
No CFL adaptation.
+-------------------------------------------+
|  MG Level| Presmooth|PostSmooth|CorrectSmo|
+-------------------------------------------+
|         0|         1|         0|         0|
|         1|         2|         0|         0|
|         2|         3|         0|         0|
|         3|         3|         0|         0|
+-------------------------------------------+
Courant-Friedrichs-Lewy number:        1

------------------ Convergence Criteria  ( Zone 0 ) ---------------------
Maximum number of solver subiterations: 1000.
Begin convergence monitoring at iteration 10.
Residual minimum value: 1e-8.
Cauchy series min. value: 1e-10.
Number of Cauchy elements: 100.
Begin windowed time average at iteration 15.

-------------------- Output Information ( Zone 0 ) ----------------------
Writing solution files every 10 iterations.
Writing the convergence history file every 1 inner iterations.
Writing the screen convergence history every 1 inner iterations.
The tabular file format is Tecplot (.dat).
Convergence history file name: history.
Forces breakdown file name: forces_breakdown.dat.
Surface file name: surface_flow.
Volume file name: flow.
Restart file name: solution_flow.dat.

------------- Config File Boundary Information ( Zone 0 ) ---------------
+-----------------------------------------------------------------------+
|                        Marker Type|                        Marker Name|
+-----------------------------------------------------------------------+
|                         Euler wall|                             Wing_1|
+-----------------------------------------------------------------------+
|                          Far-field|                           Farfield|
+-----------------------------------------------------------------------+
|                     Symmetry plane|                                  0|
+-----------------------------------------------------------------------+
|           Deformable mesh boundary|                            airfoil|
+-----------------------------------------------------------------------+

-------------------- Output Preprocessing ( Zone 0 ) --------------------
Screen output fields: INNER_ITER, TIME_ITER, RMS_DENSITY, RMS_MOMENTUM-X, RMS_MOMENTUM-Y, RMS_ENERGY, LIFT, DRAG
  Info: Ignoring the following history output groups:
  TIME_ITER
History output group(s): ITER, RMS_RES, AERO_COEFF
Warning: No (valid) fields chosen for convergence monitoring. Convergence monitoring inactive.
Warning: No (valid) fields chosen for time convergence monitoring. Time convergence monitoring inactive.
Volume output fields: COORDINATES, SOLUTION, PRIMITIVE

------------------- Geometry Preprocessing ( Zone 0 ) -------------------
Three dimensional problem.
142678 grid points before partitioning.
739205 volume elements before partitioning.
2 surface markers.
99234 boundary elements in index 0 (Marker = Wing_1).
1280 boundary elements in index 1 (Marker = Farfield).
Executing the partitioning functions.
Building the graph adjacency structure.
Calling ParMETIS... graph partitioning complete (4166 edge cuts).
Distributing ParMETIS coloring.
Rebalancing vertices.
Rebalancing volume element connectivity.
Rebalancing markers and surface elements.
144929 vertices including ghost points. 
745322 interior elements including halo cells. 
745322 tetrahedra.
Establishing MPI communication patterns.
Setting point connectivity.
Renumbering points (Reverse Cuthill McKee Ordering).
Recomputing point connectivity.
Setting element connectivity.
Checking the numerical grid orientation.
Identifying edges and vertices.
Computing centers of gravity.
Setting the control volume structure.
Volume of the computational grid: 587948.
Searching for the closest normal neighbors to the surfaces.
Storing a mapping from global to local point index.
Compute the surface curvature.
Max K: 956.673. Mean K: 12.8903. Standard deviation K: 55.0111.
Checking for periodicity.
Computing mesh quality statistics for the dual control volumes.
+--------------------------------------------------------------+
|           Mesh Quality Metric|        Minimum|        Maximum|
+--------------------------------------------------------------+
|    Orthogonality Angle (deg.)|        46.3392|        85.7736|
|     CV Face Area Aspect Ratio|        1.42183|        36.5238|
|           CV Sub-Volume Ratio|        1.02915|        142.953|
+--------------------------------------------------------------+
Setting the multigrid structure.
+-------------------------------------------+
|  MG Level|       CVs|Aggl. Rate|       CFL|
+-------------------------------------------+
|         0|    144929|    1/1.00|         1|
|         1|     24168|       1/6|  0.825632|
|         2|      3805|    1/6.35|  0.668727|
|         3|       762|    1/4.99|  0.586868|
+-------------------------------------------+
Finding max control volume width.
Communicating number of neighbors.
Semi-span length = 4.98594 m.
Wetted area = 42.1641 m^2.
Area projection in the x-plane = 3.09359 m^2, y-plane = 1.6296 m^2, z-plane = 20.0837 m^2.
Max. coordinate in the x-direction = 1.0223 m, y-direction = 4.98594 m, z-direction = 0.511594 m.
Min. coordinate in the x-direction = -1.02823 m, y-direction = -4.98515 m, z-direction = -0.117261 m.
Checking if Euler & Symmetry markers are straight/plane:
Boundary marker Wing_1 is NOT a single plane.
Boundary marker 0 is a single plane.

-------------------- Solver Preprocessing ( Zone 0 ) --------------------
Inviscid flow: Computing density based on free-stream
temperature and pressure using the ideal gas law.
Force coefficients computed using free-stream values.

-- Models:
+------------------------------------------------------------------------------+
|          Viscosity Model|        Conductivity Model|              Fluid Model|
+------------------------------------------------------------------------------+
|                        -|                         -|             STANDARD_AIR|
+------------------------------------------------------------------------------+
-- Fluid properties:
+------------------------------------------------------------------------------+
|                  Name|    Dim. value|    Ref. value|      Unit|Non-dim. value|
+------------------------------------------------------------------------------+
|          Gas Constant|       287.058|             1|  N.m/kg.K|       287.058|
|      Spec. Heat Ratio|             -|             -|         -|           1.4|
+------------------------------------------------------------------------------+
-- Initial and free-stream conditions:
+------------------------------------------------------------------------------+
|                  Name|    Dim. value|    Ref. value|      Unit|Non-dim. value|
+------------------------------------------------------------------------------+
|       Static Pressure|        101325|             1|        Pa|        101325|
|               Density|       1.22498|             1|    kg/m^3|       1.22498|
|           Temperature|        288.15|             1|         K|        288.15|
|          Total Energy|        211794|             1|   m^2/s^2|        211794|
|            Velocity-X|       98.5274|             1|       m/s|       98.5274|
|            Velocity-Y|             0|             1|       m/s|             0|
|            Velocity-Z|        17.373|             1|       m/s|        17.373|
|    Velocity Magnitude|       100.047|             1|       m/s|       100.047|
+------------------------------------------------------------------------------+
|           Mach Number|             -|             -|         -|         0.294|
+------------------------------------------------------------------------------+
Initialize Jacobian structure (Euler). MG level: 0.
Initialize Jacobian structure (Euler). MG level: 1.
Initialize Jacobian structure (Euler). MG level: 2.
Initialize Jacobian structure (Euler). MG level: 3.

------------------- Numerics Preprocessing ( Zone 0 ) -------------------

----------------- Integration Preprocessing ( Zone 0 ) ------------------

------------------- Iteration Preprocessing ( Zone 0 ) ------------------
Euler/Navier-Stokes/RANS fluid iteration.

------------------------------ Begin Solver -----------------------------

Simulation Run using the Single-zone Driver
+-------------------------------------------------------------------------------------------------------+
|  Inner_Iter|   Time_Iter|    rms[Rho]|   rms[RhoU]|   rms[RhoV]|   rms[RhoE]|          CL|          CD|
+-------------------------------------------------------------------------------------------------------+
|           0|           0|   -1.659166|    0.508339|   -0.311323|    3.809934|    2.198434|    0.980025|
|           1|           0|   -1.732899|    0.480390|    0.056693|    3.738092|    3.805079|    1.685633|
|           2|           0|   -1.671562|    0.602548|    0.299078|    3.802539|    4.903164|    2.154612|
|           3|           0|   -1.582434|    0.730113|    0.449212|    3.892690|    5.585603|    2.428194|
|           4|           0|   -1.501511|    0.843578|    0.568700|    3.974048|    5.938892|    2.545500|
|           5|           0|   -1.431375|    0.946085|    0.676590|    4.044637|    6.039852|    2.542697|
|           6|           0|   -1.370157|    1.039461|    0.777951|    4.106320|    5.954212|    2.451761|
|           7|           0|   -1.317077|    1.124108|    0.873325|    4.159769|    5.737223|    2.299992|
|           8|           0|   -1.272299|    1.200136|    0.962196|    4.204728|    5.435509|    2.110542|
|           9|           0|   -1.235992|    1.267736|    1.043986|    4.240962|    5.086283|    1.902290|
|          10|           0|   -1.208468|    1.327253|    1.118176|    4.268079|    4.715881|    1.689135|
+-----------------------------------------------------------------------+
|        File Writing Summary       |              Filename             |
+-----------------------------------------------------------------------+
|SU2 restart                        |solution_flow.dat                  |
|Paraview                           |flow.vtu                           |
|Paraview surface                   |surface_flow.vtu                   |
+-----------------------------------------------------------------------+

Writing the forces breakdown file (forces_breakdown.dat).
+-------------------------------------------------------------------------------------------------------+
|  Inner_Iter|   Time_Iter|    rms[Rho]|   rms[RhoU]|   rms[RhoV]|   rms[RhoE]|          CL|          CD|
+-------------------------------------------------------------------------------------------------------+
|          11|           0|   -1.189949|    1.378894|    1.184556|    4.285723|    4.342876|    1.480845|
|          12|           0|   -1.180442|    1.422989|    1.243219|    4.293725|    3.979765|    1.283998|
|          13|           0|   -1.179852|    1.459827|    1.294245|    4.291949|    3.633716|    1.102299|
|          14|           0|   -1.187582|    1.489571|    1.337730|    4.280613|    3.307823|    0.937179|
|          15|           0|   -1.202755|    1.512445|    1.373822|    4.260119|    3.002400|    0.788526|
|          16|           0|   -1.223167|    1.528684|    1.402724|    4.232181|    2.715848|    0.655169|
|          17|           0|   -1.244717|    1.538469|    1.424477|    4.200863|    2.445665|    0.535411|
|          18|           0|   -1.261562|    1.542040|    1.439188|    4.173232|    2.189087|    0.427347|
|          19|           0|   -1.266229|    1.539484|    1.446989|    4.160080|    1.943554|    0.329136|
|          20|           0|   -1.254793|    1.531034|    1.447895|    4.169182|    1.707074|    0.239151|
+-----------------------------------------------------------------------+
|        File Writing Summary       |              Filename             |
+-----------------------------------------------------------------------+
|SU2 restart                        |solution_flow.dat                  |
|Paraview                           |flow.vtu                           |
|Paraview surface                   |surface_flow.vtu                   |
+-----------------------------------------------------------------------+

Writing the forces breakdown file (forces_breakdown.dat).
+-------------------------------------------------------------------------------------------------------+
|  Inner_Iter|   Time_Iter|    rms[Rho]|   rms[RhoU]|   rms[RhoV]|   rms[RhoE]|          CL|          CD|
+-------------------------------------------------------------------------------------------------------+
|          21|           0|   -1.228767|    1.517134|    1.442142|    4.199563|    1.478345|    0.156077|
|          22|           0|   -1.193907|    1.498021|    1.429905|    4.242514|    1.256962|    0.078989|
|          23|           0|   -1.156781|    1.474614|    1.411261|    4.288328|    1.043331|    0.007327|
|          24|           0|   -1.122215|    1.447269|    1.386711|    4.330540|    0.838551|   -0.059122|
|          25|           0|   -1.093017|    1.417724|    1.356850|    4.365892|    0.644250|   -0.120298|
|          26|           0|   -1.070795|    1.387939|    1.323330|    4.392739|    0.462382|   -0.175951|
|          27|           0|   -1.055361|    1.359996|    1.287850|    4.411360|    0.295083|   -0.225703|
|          28|           0|   -1.046641|    1.335675|    1.252899|    4.421869|    0.144473|   -0.269112|
|          29|           0|   -1.043717|    1.319757|    1.222878|    4.425444|    0.012512|   -0.305742|
|          30|           0|   -1.045753|    1.313968|    1.201287|    4.422958|   -0.099077|   -0.335208|
+-----------------------------------------------------------------------+
|        File Writing Summary       |              Filename             |
+-----------------------------------------------------------------------+
|SU2 restart                        |solution_flow.dat                  |
|Paraview                           |flow.vtu                           |
|Paraview surface                   |surface_flow.vtu                   |
+-----------------------------------------------------------------------+

Writing the forces breakdown file (forces_breakdown.dat).
+-------------------------------------------------------------------------------------------------------+
|  Inner_Iter|   Time_Iter|    rms[Rho]|   rms[RhoU]|   rms[RhoV]|   rms[RhoE]|          CL|          CD|
+-------------------------------------------------------------------------------------------------------+
|          31|           0|   -1.051183|    1.317800|    1.191124|    4.415955|   -0.188888|   -0.357219|
|          32|           0|   -1.058762|    1.330276|    1.193458|    4.405650|   -0.255863|   -0.371585|
|          33|           0|   -1.066515|    1.348513|    1.207762|    4.394324|   -0.299334|   -0.378232|
|          34|           0|   -1.072908|    1.370289|    1.230389|    4.383703|   -0.319037|   -0.377216|
|          35|           0|   -1.077693|    1.394670|    1.257415|    4.374561|   -0.315091|   -0.368714|
|          36|           0|   -1.081026|    1.419755|    1.286603|    4.367383|   -0.288009|   -0.353019|
|          37|           0|   -1.084289|    1.443069|    1.315774|    4.360818|   -0.238623|   -0.330516|
|          38|           0|   -1.087835|    1.463123|    1.343317|    4.354468|   -0.168095|   -0.301684|
|          39|           0|   -1.092307|    1.479151|    1.369151|    4.347597|   -0.077868|   -0.267077|
|          40|           0|   -1.098235|    1.490803|    1.392011|    4.339572|    0.030350|   -0.227316|
+-----------------------------------------------------------------------+
|        File Writing Summary       |              Filename             |
+-----------------------------------------------------------------------+
|SU2 restart                        |solution_flow.dat                  |
|Paraview                           |flow.vtu                           |
|Paraview surface                   |surface_flow.vtu                   |
+-----------------------------------------------------------------------+

Writing the forces breakdown file (forces_breakdown.dat).
+-------------------------------------------------------------------------------------------------------+
|  Inner_Iter|   Time_Iter|    rms[Rho]|   rms[RhoU]|   rms[RhoV]|   rms[RhoE]|          CL|          CD|
+-------------------------------------------------------------------------------------------------------+
|          41|           0|   -1.105531|    1.497711|    1.410621|    4.330514|    0.154622|   -0.183075|
|          42|           0|   -1.112486|    1.499391|    1.424664|    4.322259|    0.292803|   -0.135076|
|          43|           0|   -1.117878|    1.495591|    1.433594|    4.316152|    0.442589|   -0.084074|
|          44|           0|   -1.120229|    1.486375|    1.437471|    4.314041|    0.601547|   -0.030846|
|          45|           0|   -1.118014|    1.471619|    1.435994|    4.317619|    0.767168|    0.023814|
|          46|           0|   -1.110745|    1.451437|    1.429513|    4.327320|    0.936897|    0.079117|
|          47|           0|   -1.100024|    1.426422|    1.418927|    4.341143|    1.108187|    0.134281|
|          48|           0|   -1.087684|    1.397292|    1.404904|    4.356743|    1.278504|    0.188537|
|          49|           0|   -1.075649|    1.366038|    1.388577|    4.371883|    1.445400|    0.241146|
|          50|           0|   -1.065282|    1.335156|    1.371826|    4.384904|    1.606524|    0.291399|
+-----------------------------------------------------------------------+
|        File Writing Summary       |              Filename             |
+-----------------------------------------------------------------------+
|SU2 restart                        |solution_flow.dat                  |
|Paraview                           |flow.vtu                           |
|Paraview surface                   |surface_flow.vtu                   |
+-----------------------------------------------------------------------+

Writing the forces breakdown file (forces_breakdown.dat).
+-------------------------------------------------------------------------------------------------------+
|  Inner_Iter|   Time_Iter|    rms[Rho]|   rms[RhoU]|   rms[RhoV]|   rms[RhoE]|          CL|          CD|
+-------------------------------------------------------------------------------------------------------+
|          51|           0|   -1.058317|    1.307774|    1.356551|    4.394039|    1.759684|    0.338638|
|          52|           0|   -1.056546|    1.288054|    1.345451|    4.397373|    1.902862|    0.382259|
|          53|           0|   -1.059260|    1.279026|    1.340153|    4.395584|    2.034268|    0.421726|
|          54|           0|   -1.066657|    1.281793|    1.341802|    4.388316|    2.152348|    0.456580|
|          55|           0|   -1.079080|    1.293526|    1.349494|    4.375078|    2.255833|    0.486447|
|          56|           0|   -1.095526|    1.310784|    1.361761|    4.356706|    2.343751|    0.511045|
|          57|           0|   -1.113974|    1.329414|    1.376208|    4.335161|    2.415418|    0.530186|
|          58|           0|   -1.133446|    1.347482|    1.390987|    4.311316|    2.470459|    0.543775|
|          59|           0|   -1.152058|    1.363199|    1.404661|    4.287067|    2.508796|    0.551815|
|          60|           0|   -1.167793|    1.375569|    1.416072|    4.264962|    2.530645|    0.554397|
+-----------------------------------------------------------------------+
|        File Writing Summary       |              Filename             |
+-----------------------------------------------------------------------+
|SU2 restart                        |solution_flow.dat                  |
|Paraview                           |flow.vtu                           |
|Paraview surface                   |surface_flow.vtu                   |
+-----------------------------------------------------------------------+

Writing the forces breakdown file (forces_breakdown.dat).
+-------------------------------------------------------------------------------------------------------+
|  Inner_Iter|   Time_Iter|    rms[Rho]|   rms[RhoU]|   rms[RhoV]|   rms[RhoE]|          CL|          CD|
+-------------------------------------------------------------------------------------------------------+
|          61|           0|   -1.180286|    1.383955|    1.424845|    4.246188|    2.536489|    0.551701|
|          62|           0|   -1.188526|    1.388759|    1.430570|    4.232742|    2.527048|    0.543988|
|          63|           0|   -1.192341|    1.389439|    1.433252|    4.225626|    2.503273|    0.531589|
|          64|           0|   -1.192440|    1.386695|    1.432850|    4.224367|    2.466334|    0.514907|
|          65|           0|   -1.189706|    1.380849|    1.429497|    4.228186|    2.417545|    0.494395|
|          66|           0|   -1.185222|    1.372017|    1.423279|    4.235607|    2.358368|    0.470557|
|          67|           0|   -1.180254|    1.359957|    1.414550|    4.244719|    2.290359|    0.443925|
|          68|           0|   -1.176048|    1.344752|    1.403530|    4.253613|    2.215148|    0.415058|
|          69|           0|   -1.173204|    1.327400|    1.390769|    4.261261|    2.134422|    0.384529|
|          70|           0|   -1.172030|    1.308426|    1.376980|    4.267076|    2.049860|    0.352911|
+-----------------------------------------------------------------------+
|        File Writing Summary       |              Filename             |
+-----------------------------------------------------------------------+
|SU2 restart                        |solution_flow.dat                  |
|Paraview                           |flow.vtu                           |
|Paraview surface                   |surface_flow.vtu                   |
+-----------------------------------------------------------------------+

Writing the forces breakdown file (forces_breakdown.dat).
+-------------------------------------------------------------------------------------------------------+
|  Inner_Iter|   Time_Iter|    rms[Rho]|   rms[RhoU]|   rms[RhoV]|   rms[RhoE]|          CL|          CD|
+-------------------------------------------------------------------------------------------------------+
|          71|           0|   -1.172858|    1.288107|    1.362630|    4.270465|    1.963115|    0.320762|
|          72|           0|   -1.175856|    1.267627|    1.348765|    4.271098|    1.875799|    0.288627|
|          73|           0|   -1.180769|    1.248026|    1.336004|    4.269150|    1.789466|    0.257026|
|          74|           0|   -1.187238|    1.230795|    1.325289|    4.264921|    1.705555|    0.226439|
|          75|           0|   -1.195422|    1.217113|    1.317133|    4.258159|    1.625377|    0.197301|
|          76|           0|   -1.205148|    1.207918|    1.311772|    4.248915|    1.550112|    0.169998|
|          77|           0|   -1.216498|    1.204369|    1.309249|    4.237066|    1.480786|    0.144865|
|          78|           0|   -1.228844|    1.205938|    1.309311|    4.223168|    1.418285|    0.122181|
|          79|           0|   -1.242439|    1.211960|    1.311241|    4.206894|    1.363320|    0.102170|
|          80|           0|   -1.257196|    1.220895|    1.314200|    4.188266|    1.316427|    0.084990|
+-----------------------------------------------------------------------+
|        File Writing Summary       |              Filename             |
+-----------------------------------------------------------------------+
|SU2 restart                        |solution_flow.dat                  |
|Paraview                           |flow.vtu                           |
|Paraview surface                   |surface_flow.vtu                   |
+-----------------------------------------------------------------------+

Writing the forces breakdown file (forces_breakdown.dat).
+-------------------------------------------------------------------------------------------------------+
|  Inner_Iter|   Time_Iter|    rms[Rho]|   rms[RhoU]|   rms[RhoV]|   rms[RhoE]|          CL|          CD|
+-------------------------------------------------------------------------------------------------------+
|          81|           0|   -1.271802|    1.231062|    1.317406|    4.168799|    1.277985|    0.070745|
|          82|           0|   -1.286083|    1.241792|    1.320339|    4.148876|    1.248198|    0.059479|
|          83|           0|   -1.299786|    1.251584|    1.322584|    4.129048|    1.227130|    0.051187|
|          84|           0|   -1.311953|    1.259196|    1.323613|    4.110871|    1.214686|    0.045810|
|          85|           0|   -1.322715|    1.264932|    1.322803|    4.094852|    1.210636|    0.043242|
|          86|           0|   -1.332608|    1.268431|    1.320013|    4.080862|    1.214610|    0.043335|
|          87|           0|   -1.341439|    1.269471|    1.314863|    4.069402|    1.226143|    0.045905|
|          88|           0|   -1.349190|    1.267817|    1.307507|    4.060724|    1.244653|    0.050735|
|          89|           0|   -1.355964|    1.263830|    1.297951|    4.054701|    1.269495|    0.057592|
|          90|           0|   -1.362060|    1.257172|    1.286592|    4.050952|    1.299946|    0.066220|
+-----------------------------------------------------------------------+
|        File Writing Summary       |              Filename             |
+-----------------------------------------------------------------------+
|SU2 restart                        |solution_flow.dat                  |
|Paraview                           |flow.vtu                           |
|Paraview surface                   |surface_flow.vtu                   |
+-----------------------------------------------------------------------+

Writing the forces breakdown file (forces_breakdown.dat).
+-------------------------------------------------------------------------------------------------------+
|  Inner_Iter|   Time_Iter|    rms[Rho]|   rms[RhoU]|   rms[RhoV]|   rms[RhoE]|          CL|          CD|
+-------------------------------------------------------------------------------------------------------+
|          91|           0|   -1.367638|    1.247547|    1.273454|    4.048986|    1.335242|    0.076354|
|          92|           0|   -1.373001|    1.235262|    1.258521|    4.048089|    1.374577|    0.087720|
|          93|           0|   -1.378888|    1.220752|    1.242317|    4.047041|    1.417118|    0.100038|
|          94|           0|   -1.385505|    1.204463|    1.225417|    4.045412|    1.462038|    0.113036|
|          95|           0|   -1.393153|    1.187009|    1.208161|    4.042637|    1.508505|    0.126447|
|          96|           0|   -1.401980|    1.168856|    1.191170|    4.038368|    1.555723|    0.140018|
|          97|           0|   -1.411824|    1.150896|    1.174812|    4.032647|    1.602925|    0.153512|
|          98|           0|   -1.422572|    1.133630|    1.159457|    4.025451|    1.649389|    0.166711|
|          99|           0|   -1.435026|    1.118427|    1.145645|    4.015759|    1.694451|    0.179416|
|         100|           0|   -1.448751|    1.106107|    1.133845|    4.004113|    1.737472|    0.191445|
+-----------------------------------------------------------------------+
|        File Writing Summary       |              Filename             |
+-----------------------------------------------------------------------+
|SU2 restart                        |solution_flow.dat                  |
|Paraview                           |flow.vtu                           |
|Paraview surface                   |surface_flow.vtu                   |
+-----------------------------------------------------------------------+

Writing the forces breakdown file (forces_breakdown.dat).
+-------------------------------------------------------------------------------------------------------+
|  Inner_Iter|   Time_Iter|    rms[Rho]|   rms[RhoU]|   rms[RhoV]|   rms[RhoE]|          CL|          CD|
+-------------------------------------------------------------------------------------------------------+
|         101|           0|   -1.463480|    1.097148|    1.124238|    3.990760|    1.777918|    0.202652|
|         102|           0|   -1.479013|    1.091631|    1.116728|    3.975804|    1.815309|    0.212908|
|         103|           0|   -1.495174|    1.089500|    1.111082|    3.959377|    1.849244|    0.222113|
|         104|           0|   -1.511925|    1.090177|    1.106786|    3.941579|    1.879398|    0.230190|
|         105|           0|   -1.528938|    1.093438|    1.103347|    3.922796|    1.905526|    0.237087|
|         106|           0|   -1.546261|    1.098612|    1.100328|    3.902954|    1.927464|    0.242779|
|         107|           0|   -1.563018|    1.104539|    1.097345|    3.883005|    1.945119|    0.247261|
|         108|           0|   -1.579391|    1.110352|    1.093853|    3.862936|    1.958465|    0.250549|
|         109|           0|   -1.595425|    1.115643|    1.089672|    3.842965|    1.967563|    0.252679|
|         110|           0|   -1.610770|    1.119868|    1.084556|    3.823784|    1.972535|    0.253702|
+-----------------------------------------------------------------------+
|        File Writing Summary       |              Filename             |
+-----------------------------------------------------------------------+
|SU2 restart                        |solution_flow.dat                  |
|Paraview                           |flow.vtu                           |
|Paraview surface                   |surface_flow.vtu                   |
+-----------------------------------------------------------------------+

Writing the forces breakdown file (forces_breakdown.dat).
+-------------------------------------------------------------------------------------------------------+
|  Inner_Iter|   Time_Iter|    rms[Rho]|   rms[RhoU]|   rms[RhoV]|   rms[RhoE]|          CL|          CD|
+-------------------------------------------------------------------------------------------------------+
|         111|           0|   -1.625436|    1.123189|    1.078596|    3.805544|    1.973552|    0.253681|
|         112|           0|   -1.638842|    1.125285|    1.071411|    3.789261|    1.970843|    0.252692|
|         113|           0|   -1.650996|    1.126217|    1.062823|    3.775137|    1.964654|    0.250813|
|         114|           0|   -1.662071|    1.125858|    1.052599|    3.763115|    1.955302|    0.248137|
|         115|           0|   -1.671976|    1.124104|    1.040743|    3.753467|    1.943129|    0.244758|
|         116|           0|   -1.680597|    1.120922|    1.027138|    3.746321|    1.928508|    0.240779|
|         117|           0|   -1.687801|    1.116204|    1.011822|    3.741622|    1.911822|    0.236301|
|         118|           0|   -1.693780|    1.110011|    0.994735|    3.739046|    1.893460|    0.231423|
|         119|           0|   -1.698460|    1.102499|    0.975985|    3.738438|    1.873819|    0.226241|
|         120|           0|   -1.702147|    1.093813|    0.955691|    3.739224|    1.853279|    0.220847|
+-----------------------------------------------------------------------+
|        File Writing Summary       |              Filename             |
+-----------------------------------------------------------------------+
|SU2 restart                        |solution_flow.dat                  |
|Paraview                           |flow.vtu                           |
|Paraview surface                   |surface_flow.vtu                   |
+-----------------------------------------------------------------------+

Writing the forces breakdown file (forces_breakdown.dat).
+-------------------------------------------------------------------------------------------------------+
|  Inner_Iter|   Time_Iter|    rms[Rho]|   rms[RhoU]|   rms[RhoV]|   rms[RhoE]|          CL|          CD|
+-------------------------------------------------------------------------------------------------------+
|         121|           0|   -1.705045|    1.084071|    0.934142|    3.740903|    1.832223|    0.215331|
|         122|           0|   -1.707281|    1.073314|    0.911542|    3.743123|    1.811018|    0.209777|
|         123|           0|   -1.709404|    1.062095|    0.888331|    3.745151|    1.790015|    0.204265|
|         124|           0|   -1.711939|    1.050792|    0.864914|    3.746251|    1.769544|    0.198864|
|         125|           0|   -1.715154|    1.039486|    0.841879|    3.746019|    1.749923|    0.193645|
|         126|           0|   -1.719289|    1.028293|    0.820113|    3.743964|    1.731425|    0.188664|
|         127|           0|   -1.724465|    1.017760|    0.800621|    3.740279|    1.714298|    0.183973|
|         128|           0|   -1.731082|    1.008049|    0.784178|    3.734317|    1.698754|    0.179614|
|         129|           0|   -1.739236|    0.999708|    0.771627|    3.726111|    1.684981|    0.175623|
|         130|           0|   -1.748743|    0.992591|    0.763286|    3.715774|    1.673124|    0.172027|
+-----------------------------------------------------------------------+
|        File Writing Summary       |              Filename             |
+-----------------------------------------------------------------------+
|SU2 restart                        |solution_flow.dat                  |
|Paraview                           |flow.vtu                           |
|Paraview surface                   |surface_flow.vtu                   |
+-----------------------------------------------------------------------+

Writing the forces breakdown file (forces_breakdown.dat).
+-------------------------------------------------------------------------------------------------------+
|  Inner_Iter|   Time_Iter|    rms[Rho]|   rms[RhoU]|   rms[RhoV]|   rms[RhoE]|          CL|          CD|
+-------------------------------------------------------------------------------------------------------+
|         131|           0|   -1.759484|    0.985212|    0.758571|    3.703096|    1.663301|    0.168849|
|         132|           0|   -1.771155|    0.978650|    0.757405|    3.688700|    1.655589|    0.166101|
|         133|           0|   -1.783373|    0.973081|    0.759198|    3.673047|    1.650046|    0.163795|
|         134|           0|   -1.795494|    0.968478|    0.762963|    3.656843|    1.646685|    0.161931|
|         135|           0|   -1.807251|    0.964902|    0.767966|    3.640377|    1.645487|    0.160502|
|         136|           0|   -1.818366|    0.961883|    0.773326|    3.624026|    1.646400|    0.159496|
|         137|           0|   -1.828124|    0.958727|    0.778168|    3.608680|    1.649354|    0.158901|
|         138|           0|   -1.836264|    0.955430|    0.781933|    3.594901|    1.654238|    0.158690|
|         139|           0|   -1.842685|    0.951592|    0.784063|    3.583226|    1.660915|    0.158834|
|         140|           0|   -1.847266|    0.946953|    0.784198|    3.574315|    1.669216|    0.159298|
+-----------------------------------------------------------------------+
|        File Writing Summary       |              Filename             |
+-----------------------------------------------------------------------+
|SU2 restart                        |solution_flow.dat                  |
|Paraview                           |flow.vtu                           |
|Paraview surface                   |surface_flow.vtu                   |
+-----------------------------------------------------------------------+

Writing the forces breakdown file (forces_breakdown.dat).
+-------------------------------------------------------------------------------------------------------+
|  Inner_Iter|   Time_Iter|    rms[Rho]|   rms[RhoU]|   rms[RhoV]|   rms[RhoE]|          CL|          CD|
+-------------------------------------------------------------------------------------------------------+
|         141|           0|   -1.850099|    0.941387|    0.782175|    3.568460|    1.678964|    0.160046|
|         142|           0|   -1.851086|    0.934671|    0.777997|    3.565954|    1.689952|    0.161034|
|         143|           0|   -1.850763|    0.926869|    0.771518|    3.566278|    1.701972|    0.162225|
|         144|           0|   -1.849338|    0.917903|    0.762804|    3.569033|    1.714798|    0.163575|
|         145|           0|   -1.847659|    0.907611|    0.751851|    3.573162|    1.728212|    0.165044|
|         146|           0|   -1.846171|    0.896241|    0.738668|    3.578009|    1.741980|    0.166590|
|         147|           0|   -1.845177|    0.883916|    0.723258|    3.582964|    1.755872|    0.168172|
|         148|           0|   -1.844639|    0.870657|    0.705704|    3.587893|    1.769670|    0.169750|
|         149|           0|   -1.844902|    0.856750|    0.686376|    3.592199|    1.783159|    0.171287|
|         150|           0|   -1.845929|    0.842341|    0.665829|    3.595668|    1.796144|    0.172749|
+-----------------------------------------------------------------------+
|        File Writing Summary       |              Filename             |
+-----------------------------------------------------------------------+
|SU2 restart                        |solution_flow.dat                  |
|Paraview                           |flow.vtu                           |
|Paraview surface                   |surface_flow.vtu                   |
+-----------------------------------------------------------------------+

Writing the forces breakdown file (forces_breakdown.dat).
+-------------------------------------------------------------------------------------------------------+
|  Inner_Iter|   Time_Iter|    rms[Rho]|   rms[RhoU]|   rms[RhoV]|   rms[RhoE]|          CL|          CD|
+-------------------------------------------------------------------------------------------------------+
|         151|           0|   -1.847902|    0.827762|    0.644574|    3.597979|    1.808446|    0.174110|
|         152|           0|   -1.850824|    0.813169|    0.623302|    3.598986|    1.819903|    0.175347|
|         153|           0|   -1.854847|    0.798874|    0.602818|    3.598394|    1.830368|    0.176439|
|         154|           0|   -1.860013|    0.785463|    0.584300|    3.596010|    1.839719|    0.177370|
|         155|           0|   -1.866147|    0.773333|    0.569005|    3.591925|    1.847844|    0.178127|
|         156|           0|   -1.873451|    0.762949|    0.557752|    3.585870|    1.854655|    0.178699|
|         157|           0|   -1.881735|    0.754542|    0.551040|    3.578029|    1.860098|    0.179081|
|         158|           0|   -1.890956|    0.748069|    0.548934|    3.568308|    1.864140|    0.179273|
|         159|           0|   -1.900818|    0.743344|    0.550885|    3.556974|    1.866775|    0.179281|
|         160|           0|   -1.911250|    0.740249|    0.555910|    3.543979|    1.868008|    0.179109|
+-----------------------------------------------------------------------+
|        File Writing Summary       |              Filename             |
+-----------------------------------------------------------------------+
|SU2 restart                        |solution_flow.dat                  |
|Paraview                           |flow.vtu                           |
|Paraview surface                   |surface_flow.vtu                   |
+-----------------------------------------------------------------------+

Writing the forces breakdown file (forces_breakdown.dat).
+-------------------------------------------------------------------------------------------------------+
|  Inner_Iter|   Time_Iter|    rms[Rho]|   rms[RhoU]|   rms[RhoV]|   rms[RhoE]|          CL|          CD|
+-------------------------------------------------------------------------------------------------------+
|         161|           0|   -1.922102|    0.738533|    0.562888|    3.529562|    1.867873|    0.178769|
|         162|           0|   -1.933309|    0.737885|    0.570831|    3.513805|    1.866425|    0.178272|
|         163|           0|   -1.944572|    0.737659|    0.578787|    3.497063|    1.863747|    0.177639|
|         164|           0|   -1.955549|    0.737519|    0.585991|    3.479938|    1.859923|    0.176884|
|         165|           0|   -1.965982|    0.737117|    0.591837|    3.462954|    1.855070|    0.176031|
|         166|           0|   -1.975389|    0.735929|    0.595867|    3.447021|    1.849306|    0.175101|
|         167|           0|   -1.983585|    0.733671|    0.597738|    3.432760|    1.842764|    0.174116|
|         168|           0|   -1.990545|    0.729907|    0.597128|    3.420702|    1.835583|    0.173100|
|         169|           0|   -1.996256|    0.724380|    0.593828|    3.411255|    1.827909|    0.172076|
|         170|           0|   -2.000590|    0.716885|    0.587788|    3.404862|    1.819893|    0.171066|
+-----------------------------------------------------------------------+
|        File Writing Summary       |              Filename             |
+-----------------------------------------------------------------------+
|SU2 restart                        |solution_flow.dat                  |
|Paraview                           |flow.vtu                           |
|Paraview surface                   |surface_flow.vtu                   |
+-----------------------------------------------------------------------+

Writing the forces breakdown file (forces_breakdown.dat).
+-------------------------------------------------------------------------------------------------------+
|  Inner_Iter|   Time_Iter|    rms[Rho]|   rms[RhoU]|   rms[RhoV]|   rms[RhoE]|          CL|          CD|
+-------------------------------------------------------------------------------------------------------+
|         171|           0|   -2.003547|    0.707354|    0.578993|    3.401699|    1.811680|    0.170091|
|         172|           0|   -2.005676|    0.695772|    0.567521|    3.401066|    1.803431|    0.169174|
|         173|           0|   -2.006961|    0.682118|    0.553508|    3.402820|    1.795296|    0.168337|
|         174|           0|   -2.007893|    0.666538|    0.537007|    3.406041|    1.787402|    0.167592|
|         175|           0|   -2.008832|    0.649144|    0.518201|    3.410052|    1.779885|    0.166955|
|         176|           0|   -2.010121|    0.630135|    0.497500|    3.414131|    1.772856|    0.166434|
|         177|           0|   -2.012108|    0.609603|    0.475308|    3.417585|    1.766423|    0.166040|
|         178|           0|   -2.014691|    0.588000|    0.452402|    3.420306|    1.760686|    0.165780|
|         179|           0|   -2.018227|    0.565896|    0.429615|    3.421759|    1.755724|    0.165656|
|         180|           0|   -2.022910|    0.543784|    0.408120|    3.421531|    1.751599|    0.165668|
+-----------------------------------------------------------------------+
|        File Writing Summary       |              Filename             |
+-----------------------------------------------------------------------+
|SU2 restart                        |solution_flow.dat                  |
|Paraview                           |flow.vtu                           |
|Paraview surface                   |surface_flow.vtu                   |
+-----------------------------------------------------------------------+

Writing the forces breakdown file (forces_breakdown.dat).
+-------------------------------------------------------------------------------------------------------+
|  Inner_Iter|   Time_Iter|    rms[Rho]|   rms[RhoU]|   rms[RhoV]|   rms[RhoE]|          CL|          CD|
+-------------------------------------------------------------------------------------------------------+
|         181|           0|   -2.028662|    0.522367|    0.389026|    3.419619|    1.748366|    0.165813|
|         182|           0|   -2.035728|    0.502368|    0.373513|    3.415654|    1.746059|    0.166088|
|         183|           0|   -2.043956|    0.484747|    0.362482|    3.409796|    1.744692|    0.166481|
|         184|           0|   -2.053223|    0.470245|    0.356270|    3.402051|    1.744270|    0.166984|
|         185|           0|   -2.063295|    0.459455|    0.354890|    3.392622|    1.744784|    0.167584|
|         186|           0|   -2.073760|    0.452542|    0.357698|    3.381963|    1.746211|    0.168269|
|         187|           0|   -2.084577|    0.449469|    0.363714|    3.370024|    1.748513|    0.169023|
|         188|           0|   -2.095716|    0.449909|    0.371747|    3.356806|    1.751639|    0.169829|
|         189|           0|   -2.106645|    0.453299|    0.380718|    3.342967|    1.755529|    0.170671|
|         190|           0|   -2.117164|    0.458638|    0.389734|    3.328769|    1.760116|    0.171531|
+-----------------------------------------------------------------------+
|        File Writing Summary       |              Filename             |
+-----------------------------------------------------------------------+
|SU2 restart                        |solution_flow.dat                  |
|Paraview                           |flow.vtu                           |
|Paraview surface                   |surface_flow.vtu                   |
+-----------------------------------------------------------------------+

Writing the forces breakdown file (forces_breakdown.dat).
+-------------------------------------------------------------------------------------------------------+
|  Inner_Iter|   Time_Iter|    rms[Rho]|   rms[RhoU]|   rms[RhoV]|   rms[RhoE]|          CL|          CD|
+-------------------------------------------------------------------------------------------------------+
|         191|           0|   -2.127190|    0.465225|    0.398007|    3.314422|    1.765323|    0.172394|
|         192|           0|   -2.136612|    0.472147|    0.404930|    3.300251|    1.771069|    0.173243|
|         193|           0|   -2.145298|    0.478739|    0.410170|    3.286604|    1.777267|    0.174061|
|         194|           0|   -2.152898|    0.484462|    0.413376|    3.274197|    1.783825|    0.174835|
|         195|           0|   -2.159309|    0.489070|    0.414409|    3.263479|    1.790643|    0.175547|
|         196|           0|   -2.164936|    0.492319|    0.413134|    3.254292|    1.797629|    0.176187|
|         197|           0|   -2.169640|    0.493891|    0.409539|    3.247047|    1.804678|    0.176739|
|         198|           0|   -2.173579|    0.493657|    0.403594|    3.241717|    1.811696|    0.177195|
|         199|           0|   -2.176904|    0.491608|    0.395320|    3.238205|    1.818583|    0.177542|
|         200|           0|   -2.179670|    0.487771|    0.384817|    3.236439|    1.825255|    0.177777|
+-----------------------------------------------------------------------+
|        File Writing Summary       |              Filename             |
+-----------------------------------------------------------------------+
|SU2 restart                        |solution_flow.dat                  |
|Paraview                           |flow.vtu                           |
|Paraview surface                   |surface_flow.vtu                   |
+-----------------------------------------------------------------------+

Writing the forces breakdown file (forces_breakdown.dat).
+-------------------------------------------------------------------------------------------------------+
|  Inner_Iter|   Time_Iter|    rms[Rho]|   rms[RhoU]|   rms[RhoV]|   rms[RhoE]|          CL|          CD|
+-------------------------------------------------------------------------------------------------------+
|         201|           0|   -2.182118|    0.482116|    0.371990|    3.235997|    1.831624|    0.177891|
|         202|           0|   -2.184540|    0.474945|    0.357190|    3.236455|    1.837612|    0.177882|
|         203|           0|   -2.187228|    0.466429|    0.340616|    3.237254|    1.843149|    0.177749|
|         204|           0|   -2.190465|    0.456749|    0.322573|    3.237909|    1.848170|    0.177493|
|         205|           0|   -2.194206|    0.445944|    0.303433|    3.238295|    1.852619|    0.177114|
|         206|           0|   -2.198634|    0.434276|    0.283614|    3.237976|    1.856450|    0.176617|
|         207|           0|   -2.203931|    0.422092|    0.263824|    3.236588|    1.859628|    0.176008|
|         208|           0|   -2.210171|    0.409637|    0.244796|    3.233912|    1.862126|    0.175294|
|         209|           0|   -2.217330|    0.397718|    0.227399|    3.229896|    1.863928|    0.174485|
|         210|           0|   -2.225499|    0.386716|    0.212607|    3.224321|    1.865034|    0.173592|
+-----------------------------------------------------------------------+
|        File Writing Summary       |              Filename             |
+-----------------------------------------------------------------------+
|SU2 restart                        |solution_flow.dat                  |
|Paraview                           |flow.vtu                           |
|Paraview surface                   |surface_flow.vtu                   |
+-----------------------------------------------------------------------+

Writing the forces breakdown file (forces_breakdown.dat).
+-------------------------------------------------------------------------------------------------------+
|  Inner_Iter|   Time_Iter|    rms[Rho]|   rms[RhoU]|   rms[RhoV]|   rms[RhoE]|          CL|          CD|
+-------------------------------------------------------------------------------------------------------+
|         211|           0|   -2.234707|    0.376924|    0.201123|    3.217049|    1.865448|    0.172626|
|         212|           0|   -2.244785|    0.368577|    0.193404|    3.208157|    1.865191|    0.171604|
|         213|           0|   -2.255627|    0.361778|    0.189567|    3.197683|    1.864282|    0.170535|
|         214|           0|   -2.267119|    0.356554|    0.189321|    3.185668|    1.862763|    0.169439|
|         215|           0|   -2.279172|    0.352818|    0.191955|    3.172175|    1.860669|    0.168327|
|         216|           0|   -2.291447|    0.350329|    0.196570|    3.157460|    1.858064|    0.167219|
|         217|           0|   -2.303720|    0.348745|    0.202242|    3.141718|    1.854996|    0.166127|
|         218|           0|   -2.315609|    0.347771|    0.208098|    3.125449|    1.851533|    0.165070|
|         219|           0|   -2.326901|    0.347007|    0.213479|    3.109004|    1.847740|    0.164060|
|         220|           0|   -2.337393|    0.346129|    0.217815|    3.092831|    1.843693|    0.163114|
+-----------------------------------------------------------------------+
|        File Writing Summary       |              Filename             |
+-----------------------------------------------------------------------+
|SU2 restart                        |solution_flow.dat                  |
|Paraview                           |flow.vtu                           |
|Paraview surface                   |surface_flow.vtu                   |
+-----------------------------------------------------------------------+

Writing the forces breakdown file (forces_breakdown.dat).
+-------------------------------------------------------------------------------------------------------+
|  Inner_Iter|   Time_Iter|    rms[Rho]|   rms[RhoU]|   rms[RhoV]|   rms[RhoE]|          CL|          CD|
+-------------------------------------------------------------------------------------------------------+
|         221|           0|   -2.346895|    0.344662|    0.220676|    3.077436|    1.839464|    0.162242|
|         222|           0|   -2.355328|    0.342356|    0.221700|    3.063266|    1.835129|    0.161460|
|         223|           0|   -2.362614|    0.339130|    0.220822|    3.050839|    1.830757|    0.160774|
|         224|           0|   -2.368685|    0.334745|    0.217870|    3.040595|    1.826420|    0.160196|
|         225|           0|   -2.373570|    0.329014|    0.212704|    3.032817|    1.822186|    0.159732|
|         226|           0|   -2.377461|    0.321832|    0.205226|    3.027522|    1.818120|    0.159387|
|         227|           0|   -2.380617|    0.313080|    0.195389|    3.024472|    1.814284|    0.159164|
|         228|           0|   -2.383176|    0.302685|    0.183349|    3.023473|    1.810737|    0.159067|
|         229|           0|   -2.385277|    0.290536|    0.169158|    3.024178|    1.807532|    0.159096|
|         230|           0|   -2.387236|    0.276680|    0.153042|    3.025962|    1.804714|    0.159249|
+-----------------------------------------------------------------------+
|        File Writing Summary       |              Filename             |
+-----------------------------------------------------------------------+
|SU2 restart                        |solution_flow.dat                  |
|Paraview                           |flow.vtu                           |
|Paraview surface                   |surface_flow.vtu                   |
+-----------------------------------------------------------------------+

Writing the forces breakdown file (forces_breakdown.dat).
+-------------------------------------------------------------------------------------------------------+
|  Inner_Iter|   Time_Iter|    rms[Rho]|   rms[RhoU]|   rms[RhoV]|   rms[RhoE]|          CL|          CD|
+-------------------------------------------------------------------------------------------------------+
|         231|           0|   -2.389317|    0.261242|    0.135228|    3.028326|    1.802323|    0.159522|
|         232|           0|   -2.391697|    0.244338|    0.116093|    3.030792|    1.800393|    0.159913|
|         233|           0|   -2.394592|    0.226179|    0.096262|    3.032868|    1.798952|    0.160414|
|         234|           0|   -2.398139|    0.207002|    0.076387|    3.034192|    1.798015|    0.161018|
|         235|           0|   -2.402478|    0.187181|    0.057227|    3.034421|    1.797596|    0.161717|
|         236|           0|   -2.407781|    0.167203|    0.039714|    3.033221|    1.797699|    0.162499|
|         237|           0|   -2.413990|    0.147810|    0.024882|    3.030615|    1.798320|    0.163354|
|         238|           0|   -2.421134|    0.129511|    0.013548|    3.026435|    1.799447|    0.164270|
|         239|           0|   -2.429009|    0.113008|    0.006260|    3.020850|    1.801064|    0.165234|
|         240|           0|   -2.437622|    0.098914|    0.003169|    3.013747|    1.803146|    0.166233|
+-----------------------------------------------------------------------+
|        File Writing Summary       |              Filename             |
+-----------------------------------------------------------------------+
|SU2 restart                        |solution_flow.dat                  |
|Paraview                           |flow.vtu                           |
|Paraview surface                   |surface_flow.vtu                   |
+-----------------------------------------------------------------------+

Writing the forces breakdown file (forces_breakdown.dat).
+-------------------------------------------------------------------------------------------------------+
|  Inner_Iter|   Time_Iter|    rms[Rho]|   rms[RhoU]|   rms[RhoV]|   rms[RhoE]|          CL|          CD|
+-------------------------------------------------------------------------------------------------------+
|         241|           0|   -2.446718|    0.087761|    0.004042|    3.005336|    1.805665|    0.167253|
|         242|           0|   -2.456194|    0.079873|    0.008233|    2.995691|    1.808583|    0.168281|
|         243|           0|   -2.465990|    0.075335|    0.014992|    2.984855|    1.811864|    0.169303|
|         244|           0|   -2.475981|    0.073845|    0.023401|    2.972914|    1.815461|    0.170305|
|         245|           0|   -2.485988|    0.074858|    0.032642|    2.960091|    1.819326|    0.171275|
|         246|           0|   -2.495638|    0.077919|    0.041876|    2.946899|    1.823410|    0.172200|
|         247|           0|   -2.504692|    0.082281|    0.050493|    2.933758|    1.827660|    0.173068|
|         248|           0|   -2.513213|    0.087321|    0.057982|    2.920759|    1.832024|    0.173869|
|         249|           0|   -2.521021|    0.092402|    0.063985|    2.908340|    1.836447|    0.174593|
|         250|           0|   -2.528034|    0.097015|    0.068316|    2.896821|    1.840877|    0.175232|
+-----------------------------------------------------------------------+
|        File Writing Summary       |              Filename             |
+-----------------------------------------------------------------------+
|SU2 restart                        |solution_flow.dat                  |
|Paraview                           |flow.vtu                           |
|Paraview surface                   |surface_flow.vtu                   |
+-----------------------------------------------------------------------+

Writing the forces breakdown file (forces_breakdown.dat).
+-------------------------------------------------------------------------------------------------------+
|  Inner_Iter|   Time_Iter|    rms[Rho]|   rms[RhoU]|   rms[RhoV]|   rms[RhoE]|          CL|          CD|
+-------------------------------------------------------------------------------------------------------+
|         251|           0|   -2.534192|    0.100819|    0.070881|    2.886584|    1.845260|    0.175777|
|         252|           0|   -2.539624|    0.103539|    0.071629|    2.877758|    1.849546|    0.176224|
|         253|           0|   -2.544349|    0.104979|    0.070504|    2.870569|    1.853686|    0.176566|
|         254|           0|   -2.548484|    0.104987|    0.067552|    2.865028|    1.857636|    0.176801|
|         255|           0|   -2.552226|    0.103542|    0.062828|    2.860984|    1.861352|    0.176927|
|         256|           0|   -2.555751|    0.100646|    0.056411|    2.858238|    1.864798|    0.176945|
|         257|           0|   -2.559227|    0.096316|    0.048436|    2.856511|    1.867940|    0.176854|
|         258|           0|   -2.562880|    0.090665|    0.039079|    2.855416|    1.870749|    0.176658|
|         259|           0|   -2.566790|    0.083844|    0.028592|    2.854724|    1.873202|    0.176359|
|         260|           0|   -2.571108|    0.076082|    0.017243|    2.854119|    1.875282|    0.175965|
+-----------------------------------------------------------------------+
|        File Writing Summary       |              Filename             |
+-----------------------------------------------------------------------+
|SU2 restart                        |solution_flow.dat                  |
|Paraview                           |flow.vtu                           |
|Paraview surface                   |surface_flow.vtu                   |
+-----------------------------------------------------------------------+

Writing the forces breakdown file (forces_breakdown.dat).
+-------------------------------------------------------------------------------------------------------+
|  Inner_Iter|   Time_Iter|    rms[Rho]|   rms[RhoU]|   rms[RhoV]|   rms[RhoE]|          CL|          CD|
+-------------------------------------------------------------------------------------------------------+
|         261|           0|   -2.576059|    0.067627|    0.005353|    2.853169|    1.876976|    0.175480|
|         262|           0|   -2.581804|    0.058697|   -0.006732|    2.851495|    1.878279|    0.174913|
|         263|           0|   -2.588409|    0.049555|   -0.018615|    2.848860|    1.879187|    0.174272|
|         264|           0|   -2.595972|    0.040562|   -0.029883|    2.845013|    1.879708|    0.173568|
|         265|           0|   -2.604616|    0.032106|   -0.040182|    2.839679|    1.879848|    0.172809|
|         266|           0|   -2.614259|    0.024285|   -0.049183|    2.832872|    1.879623|    0.172007|
|         267|           0|   -2.624830|    0.017367|   -0.056674|    2.824557|    1.879051|    0.171172|
|         268|           0|   -2.636343|    0.011531|   -0.062566|    2.814617|    1.878156|    0.170316|
|         269|           0|   -2.648685|    0.006844|   -0.066890|    2.803083|    1.876962|    0.169451|
|         270|           0|   -2.661679|    0.003321|   -0.069819|    2.790074|    1.875503|    0.168587|
+-----------------------------------------------------------------------+
|        File Writing Summary       |              Filename             |
+-----------------------------------------------------------------------+
|SU2 restart                        |solution_flow.dat                  |
|Paraview                           |flow.vtu                           |
|Paraview surface                   |surface_flow.vtu                   |
+-----------------------------------------------------------------------+

Writing the forces breakdown file (forces_breakdown.dat).
+-------------------------------------------------------------------------------------------------------+
|  Inner_Iter|   Time_Iter|    rms[Rho]|   rms[RhoU]|   rms[RhoV]|   rms[RhoE]|          CL|          CD|
+-------------------------------------------------------------------------------------------------------+
|         271|           0|   -2.674961|    0.000831|   -0.071581|    2.775914|    1.873808|    0.167736|
|         272|           0|   -2.688294|   -0.000819|   -0.072500|    2.760783|    1.871916|    0.166910|
|         273|           0|   -2.701489|   -0.001898|   -0.072921|    2.744855|    1.869860|    0.166117|
|         274|           0|   -2.714406|   -0.002691|   -0.073189|    2.728257|    1.867682|    0.165368|
|         275|           0|   -2.726713|   -0.003489|   -0.073637|    2.711497|    1.865421|    0.164672|
|         276|           0|   -2.738257|   -0.004502|   -0.074543|    2.694889|    1.863117|    0.164038|
|         277|           0|   -2.748882|   -0.005983|   -0.076142|    2.678850|    1.860805|    0.163472|
|         278|           0|   -2.758382|   -0.008173|   -0.078616|    2.663903|    1.858529|    0.162982|
|         279|           0|   -2.766695|   -0.011258|   -0.082105|    2.650486|    1.856322|    0.162571|
|         280|           0|   -2.773825|   -0.015370|   -0.086655|    2.638934|    1.854223|    0.162245|
+-----------------------------------------------------------------------+
|        File Writing Summary       |              Filename             |
+-----------------------------------------------------------------------+
|SU2 restart                        |solution_flow.dat                  |
|Paraview                           |flow.vtu                           |
|Paraview surface                   |surface_flow.vtu                   |
+-----------------------------------------------------------------------+

Writing the forces breakdown file (forces_breakdown.dat).
+-------------------------------------------------------------------------------------------------------+
|  Inner_Iter|   Time_Iter|    rms[Rho]|   rms[RhoU]|   rms[RhoV]|   rms[RhoE]|          CL|          CD|
+-------------------------------------------------------------------------------------------------------+
|         281|           0|   -2.779798|   -0.020559|   -0.092330|    2.629542|    1.852261|    0.162005|
|         282|           0|   -2.784691|   -0.027002|   -0.099113|    2.622482|    1.850468|    0.161855|
|         283|           0|   -2.788671|   -0.034804|   -0.106966|    2.617734|    1.848870|    0.161793|
|         284|           0|   -2.791973|   -0.043947|   -0.115779|    2.615018|    1.847492|    0.161821|
|         285|           0|   -2.794788|   -0.054431|   -0.125419|    2.614033|    1.846353|    0.161935|
|         286|           0|   -2.797371|   -0.066208|   -0.135671|    2.614318|    1.845471|    0.162133|
|         287|           0|   -2.799950|   -0.079188|   -0.146294|    2.615386|    1.844856|    0.162412|
|         288|           0|   -2.802714|   -0.093238|   -0.156983|    2.616787|    1.844520|    0.162766|
|         289|           0|   -2.805779|   -0.108200|   -0.167388|    2.618173|    1.844464|    0.163189|
|         290|           0|   -2.809307|   -0.123870|   -0.177189|    2.619159|    1.844692|    0.163675|
+-----------------------------------------------------------------------+
|        File Writing Summary       |              Filename             |
+-----------------------------------------------------------------------+
|SU2 restart                        |solution_flow.dat                  |
|Paraview                           |flow.vtu                           |
|Paraview surface                   |surface_flow.vtu                   |
+-----------------------------------------------------------------------+

Writing the forces breakdown file (forces_breakdown.dat).
+-------------------------------------------------------------------------------------------------------+
|  Inner_Iter|   Time_Iter|    rms[Rho]|   rms[RhoU]|   rms[RhoV]|   rms[RhoE]|          CL|          CD|
+-------------------------------------------------------------------------------------------------------+
|         291|           0|   -2.813451|   -0.139982|   -0.186028|    2.619400|    1.845197|    0.164217|
|         292|           0|   -2.818270|   -0.156231|   -0.193579|    2.618687|    1.845975|    0.164807|
|         293|           0|   -2.823785|   -0.172239|   -0.199587|    2.616876|    1.847016|    0.165436|
|         294|           0|   -2.830033|   -0.187598|   -0.203865|    2.613820|    1.848306|    0.166097|
|         295|           0|   -2.836963|   -0.201872|   -0.206361|    2.609482|    1.849828|    0.166780|
|         296|           0|   -2.844527|   -0.214695|   -0.207131|    2.603842|    1.851565|    0.167477|
|         297|           0|   -2.852608|   -0.225727|   -0.206332|    2.596972|    1.853492|    0.168177|
|         298|           0|   -2.861088|   -0.234652|   -0.204202|    2.588961|    1.855588|    0.168874|
|         299|           0|   -2.869904|   -0.241432|   -0.201042|    2.579844|    1.857826|    0.169557|
|         300|           0|   -2.878903|   -0.246061|   -0.197159|    2.569786|    1.860182|    0.170219|
+-----------------------------------------------------------------------+
|        File Writing Summary       |              Filename             |
+-----------------------------------------------------------------------+
|SU2 restart                        |solution_flow.dat                  |
|Paraview                           |flow.vtu                           |
|Paraview surface                   |surface_flow.vtu                   |
+-----------------------------------------------------------------------+

Writing the forces breakdown file (forces_breakdown.dat).
+-------------------------------------------------------------------------------------------------------+
|  Inner_Iter|   Time_Iter|    rms[Rho]|   rms[RhoU]|   rms[RhoV]|   rms[RhoE]|          CL|          CD|
+-------------------------------------------------------------------------------------------------------+
|         301|           0|   -2.887950|   -0.248704|   -0.192875|    2.558947|    1.862625|    0.170852|
|         302|           0|   -2.896966|   -0.249674|   -0.188483|    2.547442|    1.865131|    0.171449|
|         303|           0|   -2.905715|   -0.249308|   -0.184253|    2.535633|    1.867669|    0.172003|
|         304|           0|   -2.914026|   -0.248004|   -0.180423|    2.523844|    1.870215|    0.172508|
|         305|           0|   -2.921761|   -0.246149|   -0.177176|    2.512427|    1.872737|    0.172959|
|         306|           0|   -2.928930|   -0.244087|   -0.174640|    2.501547|    1.875214|    0.173352|
|         307|           0|   -2.935574|   -0.242133|   -0.172909|    2.491370|    1.877616|    0.173683|
|         308|           0|   -2.941668|   -0.240500|   -0.172043|    2.482174|    1.879924|    0.173949|
|         309|           0|   -2.947241|   -0.239498|   -0.172061|    2.474112|    1.882112|    0.174148|
|         310|           0|   -2.952398|   -0.239243|   -0.172968|    2.467204|    1.884166|    0.174280|
+-----------------------------------------------------------------------+
|        File Writing Summary       |              Filename             |
+-----------------------------------------------------------------------+
|SU2 restart                        |solution_flow.dat                  |
|Paraview                           |flow.vtu                           |
|Paraview surface                   |surface_flow.vtu                   |
+-----------------------------------------------------------------------+

Writing the forces breakdown file (forces_breakdown.dat).
+-------------------------------------------------------------------------------------------------------+
|  Inner_Iter|   Time_Iter|    rms[Rho]|   rms[RhoU]|   rms[RhoV]|   rms[RhoE]|          CL|          CD|
+-------------------------------------------------------------------------------------------------------+
|         311|           0|   -2.957332|   -0.239699|   -0.174721|    2.461338|    1.886064|    0.174343|
|         312|           0|   -2.962163|   -0.240913|   -0.177269|    2.456424|    1.887794|    0.174340|
|         313|           0|   -2.967130|   -0.242866|   -0.180533|    2.452193|    1.889342|    0.174272|
|         314|           0|   -2.972301|   -0.245538|   -0.184427|    2.448528|    1.890701|    0.174141|
|         315|           0|   -2.977807|   -0.248880|   -0.188832|    2.445204|    1.891860|    0.173951|
|         316|           0|   -2.983822|   -0.252802|   -0.193637|    2.441896|    1.892819|    0.173705|
|         317|           0|   -2.990510|   -0.257186|   -0.198739|    2.438283|    1.893574|    0.173408|
|         318|           0|   -2.997960|   -0.261920|   -0.204030|    2.434137|    1.894127|    0.173064|
|         319|           0|   -3.006242|   -0.266879|   -0.209393|    2.429257|    1.894481|    0.172680|
|         320|           0|   -3.015390|   -0.271920|   -0.214734|    2.423491|    1.894645|    0.172262|
+-----------------------------------------------------------------------+
|        File Writing Summary       |              Filename             |
+-----------------------------------------------------------------------+
|SU2 restart                        |solution_flow.dat                  |
|Paraview                           |flow.vtu                           |
|Paraview surface                   |surface_flow.vtu                   |
+-----------------------------------------------------------------------+

Writing the forces breakdown file (forces_breakdown.dat).
+-------------------------------------------------------------------------------------------------------+
|  Inner_Iter|   Time_Iter|    rms[Rho]|   rms[RhoU]|   rms[RhoV]|   rms[RhoE]|          CL|          CD|
+-------------------------------------------------------------------------------------------------------+
|         321|           0|   -3.025354|   -0.276914|   -0.219972|    2.416773|    1.894625|    0.171816|
|         322|           0|   -3.036185|   -0.281741|   -0.225046|    2.408926|    1.894434|    0.171347|
|         323|           0|   -3.047818|   -0.286321|   -0.229921|    2.399909|    1.894083|    0.170863|
|         324|           0|   -3.060254|   -0.290574|   -0.234563|    2.389606|    1.893588|    0.170371|
|         325|           0|   -3.073344|   -0.294425|   -0.238971|    2.378106|    1.892964|    0.169876|
|         326|           0|   -3.086939|   -0.297877|   -0.243156|    2.365470|    1.892229|    0.169387|
|         327|           0|   -3.100917|   -0.300948|   -0.247152|    2.351757|    1.891401|    0.168907|
|         328|           0|   -3.115073|   -0.303701|   -0.251009|    2.337090|    1.890498|    0.168446|
|         329|           0|   -3.129409|   -0.306236|   -0.254786|    2.321323|    1.889540|    0.168006|
|         330|           0|   -3.143499|   -0.308633|   -0.258530|    2.304980|    1.888547|    0.167594|
+-----------------------------------------------------------------------+
|        File Writing Summary       |              Filename             |
+-----------------------------------------------------------------------+
|SU2 restart                        |solution_flow.dat                  |
|Paraview                           |flow.vtu                           |
|Paraview surface                   |surface_flow.vtu                   |
+-----------------------------------------------------------------------+

Writing the forces breakdown file (forces_breakdown.dat).
+-------------------------------------------------------------------------------------------------------+
|  Inner_Iter|   Time_Iter|    rms[Rho]|   rms[RhoU]|   rms[RhoV]|   rms[RhoE]|          CL|          CD|
+-------------------------------------------------------------------------------------------------------+
|         331|           0|   -3.157188|   -0.311007|   -0.262314|    2.288240|    1.887536|    0.167214|
|         332|           0|   -3.170298|   -0.313472|   -0.266195|    2.271368|    1.886530|    0.166872|
|         333|           0|   -3.182623|   -0.316152|   -0.270226|    2.254700|    1.885543|    0.166569|
|         334|           0|   -3.193987|   -0.319161|   -0.274451|    2.238613|    1.884595|    0.166310|
|         335|           0|   -3.204252|   -0.322597|   -0.278899|    2.223514|    1.883701|    0.166096|
|         336|           0|   -3.213349|   -0.326550|   -0.283588|    2.209753|    1.882879|    0.165931|
|         337|           0|   -3.221233|   -0.331083|   -0.288512|    2.197694|    1.882139|    0.165814|
|         338|           0|   -3.227961|   -0.336253|   -0.293652|    2.187570|    1.881497|    0.165746|
|         339|           0|   -3.233583|   -0.342106|   -0.298978|    2.179553|    1.880961|    0.165727|
|         340|           0|   -3.238230|   -0.348656|   -0.304438|    2.173647|    1.880543|    0.165757|
+-----------------------------------------------------------------------+
|        File Writing Summary       |              Filename             |
+-----------------------------------------------------------------------+
|SU2 restart                        |solution_flow.dat                  |
|Paraview                           |flow.vtu                           |
|Paraview surface                   |surface_flow.vtu                   |
+-----------------------------------------------------------------------+

Writing the forces breakdown file (forces_breakdown.dat).
+-------------------------------------------------------------------------------------------------------+
|  Inner_Iter|   Time_Iter|    rms[Rho]|   rms[RhoU]|   rms[RhoV]|   rms[RhoE]|          CL|          CD|
+-------------------------------------------------------------------------------------------------------+
|         341|           0|   -3.242057|   -0.355898|   -0.309958|    2.169730|    1.880247|    0.165834|
|         342|           0|   -3.245278|   -0.363801|   -0.315472|    2.167519|    1.880080|    0.165955|
|         343|           0|   -3.248094|   -0.372326|   -0.320910|    2.166675|    1.880045|    0.166119|
|         344|           0|   -3.250725|   -0.381410|   -0.326192|    2.166784|    1.880144|    0.166323|
|         345|           0|   -3.253384|   -0.390984|   -0.331231|    2.167417|    1.880376|    0.166562|
|         346|           0|   -3.256258|   -0.400940|   -0.335951|    2.168184|    1.880741|    0.166835|
|         347|           0|   -3.259374|   -0.411159|   -0.340275|    2.168883|    1.881233|    0.167135|
|         348|           0|   -3.262833|   -0.421503|   -0.344145|    2.169239|    1.881850|    0.167460|
|         349|           0|   -3.266712|   -0.431821|   -0.347529|    2.169018|    1.882582|    0.167804|
[...]
|         905|           0|   -4.369476|   -1.909650|   -1.941651|    1.111633|    1.946367|    0.172029|
|         906|           0|   -4.277535|   -1.540862|   -1.874744|    1.244253|    1.946374|    0.172029|
|         907|           0|   -4.224786|   -1.340246|   -1.789278|    1.325064|    1.946380|    0.172029|
|         908|           0|   -4.217008|   -1.239683|   -1.723285|    1.352768|    1.946386|    0.172029|
|         909|           0|   -4.248964|   -1.203808|   -1.690314|    1.333666|    1.946392|    0.172029|
|         910|           0|   -4.305848|   -1.213921|   -1.691881|    1.277755|    1.946397|    0.172029|
+-----------------------------------------------------------------------+
|        File Writing Summary       |              Filename             |
+-----------------------------------------------------------------------+
|SU2 restart                        |solution_flow.dat                  |
|Paraview                           |flow.vtu                           |
|Paraview surface                   |surface_flow.vtu                   |
+-----------------------------------------------------------------------+

Writing the forces breakdown file (forces_breakdown.dat).
+-------------------------------------------------------------------------------------------------------+
|  Inner_Iter|   Time_Iter|    rms[Rho]|   rms[RhoU]|   rms[RhoV]|   rms[RhoE]|          CL|          CD|
+-------------------------------------------------------------------------------------------------------+
|         911|           0|   -4.366242|   -1.259618|   -1.726750|    1.196007|    1.946403|    0.172029|
|         912|           0|   -4.407230|   -1.337197|   -1.791550|    1.103581|    1.946409|    0.172029|
|         913|           0|   -4.412525|   -1.448309|   -1.873278|    1.035703|    1.946415|    0.172030|
|         914|           0|   -4.384112|   -1.597698|   -1.937166|    1.038895|    1.946420|    0.172030|
|         915|           0|   -4.338900|   -1.773817|   -1.944954|    1.102025|    1.946425|    0.172030|
|         916|           0|   -4.289385|   -1.817404|   -1.906417|    1.182486|    1.946431|    0.172030|
|         917|           0|   -4.239861|   -1.619779|   -1.850181|    1.262431|    1.946436|    0.172030|
|         918|           0|   -4.185593|   -1.401156|   -1.783517|    1.344696|    1.946442|    0.172030|
|         919|           0|   -4.122606|   -1.214902|   -1.704544|    1.432320|    1.946448|    0.172031|
|         920|           0|   -4.111659|   -1.115418|   -1.652871|    1.462783|    1.946455|    0.172031|
+-----------------------------------------------------------------------+
|        File Writing Summary       |              Filename             |
+-----------------------------------------------------------------------+
|SU2 restart                        |solution_flow.dat                  |
|Paraview                           |flow.vtu                           |
|Paraview surface                   |surface_flow.vtu                   |
+-----------------------------------------------------------------------+

Writing the forces breakdown file (forces_breakdown.dat).
+-------------------------------------------------------------------------------------------------------+
|  Inner_Iter|   Time_Iter|    rms[Rho]|   rms[RhoU]|   rms[RhoV]|   rms[RhoE]|          CL|          CD|
+-------------------------------------------------------------------------------------------------------+
|         921|           0|   -4.300161|   -1.221445|   -1.720760|    1.281451|    1.946460|    0.172031|
|         922|           0|   -4.413460|   -1.327057|   -1.790817|    1.128923|    1.946465|    0.172031|
|         923|           0|   -4.433502|   -1.430175|   -1.853254|    1.042160|    1.946470|    0.172031|
|         924|           0|   -4.423598|   -1.528839|   -1.904677|    1.012449|    1.946476|    0.172031|
|         925|           0|   -4.423841|   -1.619911|   -1.943897|    0.998854|    1.946481|    0.172031|
|         926|           0|   -4.442686|   -1.698126|   -1.970867|    0.977882|    1.946486|    0.172031|
|         927|           0|   -4.479501|   -1.757756|   -1.987239|    0.943183|    1.946490|    0.172031|
|         928|           0|   -4.454254|   -1.962189|   -1.999612|    0.989436|    1.946496|    0.172032|
|         929|           0|   -4.345401|   -1.811377|   -1.966975|    1.146910|    1.946502|    0.172032|
|         930|           0|   -4.261822|   -1.482282|   -1.878761|    1.267744|    1.946506|    0.172033|
+-----------------------------------------------------------------------+
|        File Writing Summary       |              Filename             |
+-----------------------------------------------------------------------+
|SU2 restart                        |solution_flow.dat                  |
|Paraview                           |flow.vtu                           |
|Paraview surface                   |surface_flow.vtu                   |
+-----------------------------------------------------------------------+

Writing the forces breakdown file (forces_breakdown.dat).
+-------------------------------------------------------------------------------------------------------+
|  Inner_Iter|   Time_Iter|    rms[Rho]|   rms[RhoU]|   rms[RhoV]|   rms[RhoE]|          CL|          CD|
+-------------------------------------------------------------------------------------------------------+
|         931|           0|   -4.219986|   -1.310299|   -1.787083|    1.335339|    1.946511|    0.172033|
|         932|           0|   -4.222598|   -1.227484|   -1.724414|    1.351032|    1.946516|    0.172033|
|         933|           0|   -4.262198|   -1.203949|   -1.698282|    1.322128|    1.946521|    0.172033|
|         934|           0|   -4.322024|   -1.223273|   -1.708168|    1.259030|    1.946526|    0.172033|
|         935|           0|   -4.379943|   -1.276799|   -1.752549|    1.172838|    1.946531|    0.172034|
|         936|           0|   -4.413518|   -1.362327|   -1.827426|    1.081758|    1.946535|    0.172034|
|         937|           0|   -4.409453|   -1.482742|   -1.915945|    1.027860|    1.946540|    0.172034|
|         938|           0|   -4.375199|   -1.643075|   -1.974777|    1.049314|    1.946545|    0.172034|
|         939|           0|   -4.328262|   -1.815313|   -1.967331|    1.119753|    1.946550|    0.172035|
|         940|           0|   -4.278441|   -1.788247|   -1.917067|    1.201008|    1.946555|    0.172035|
+-----------------------------------------------------------------------+
|        File Writing Summary       |              Filename             |
+-----------------------------------------------------------------------+
|SU2 restart                        |solution_flow.dat                  |
|Paraview                           |flow.vtu                           |
|Paraview surface                   |surface_flow.vtu                   |
+-----------------------------------------------------------------------+

Writing the forces breakdown file (forces_breakdown.dat).
+-------------------------------------------------------------------------------------------------------+
|  Inner_Iter|   Time_Iter|    rms[Rho]|   rms[RhoU]|   rms[RhoV]|   rms[RhoE]|          CL|          CD|
+-------------------------------------------------------------------------------------------------------+
|         941|           0|   -4.228235|   -1.566652|   -1.852746|    1.281116|    1.946559|    0.172034|
|         942|           0|   -4.171974|   -1.354146|   -1.778448|    1.364708|    1.946563|    0.172035|
|         943|           0|   -4.107243|   -1.175443|   -1.692953|    1.453047|    1.946568|    0.172035|
|         944|           0|   -4.157130|   -1.139451|   -1.676663|    1.421231|    1.946574|    0.172035|
|         945|           0|   -4.336080|   -1.245625|   -1.748844|    1.242328|    1.946579|    0.172036|
|         946|           0|   -4.426699|   -1.350998|   -1.821542|    1.101262|    1.946583|    0.172035|
|         947|           0|   -4.433843|   -1.453603|   -1.886419|    1.029947|    1.946588|    0.172036|
|         948|           0|   -4.424062|   -1.551382|   -1.940240|    1.007124|    1.946592|    0.172036|
|         949|           0|   -4.427995|   -1.640754|   -1.981269|    0.993323|    1.946596|    0.172036|
|         950|           0|   -4.450738|   -1.716028|   -2.009084|    0.969782|    1.946601|    0.172036|
+-----------------------------------------------------------------------+
|        File Writing Summary       |              Filename             |
+-----------------------------------------------------------------------+
|SU2 restart                        |solution_flow.dat                  |
|Paraview                           |flow.vtu                           |
|Paraview surface                   |surface_flow.vtu                   |
+-----------------------------------------------------------------------+

Writing the forces breakdown file (forces_breakdown.dat).
+-------------------------------------------------------------------------------------------------------+
|  Inner_Iter|   Time_Iter|    rms[Rho]|   rms[RhoU]|   rms[RhoV]|   rms[RhoE]|          CL|          CD|
+-------------------------------------------------------------------------------------------------------+
|         951|           0|   -4.490505|   -1.771933|   -2.025602|    0.932786|    1.946605|    0.172036|
|         952|           0|   -4.428971|   -2.039604|   -2.034822|    1.025560|    1.946610|    0.172036|
|         953|           0|   -4.322860|   -1.720205|   -1.977650|    1.179137|    1.946615|    0.172037|
|         954|           0|   -4.247759|   -1.433065|   -1.872977|    1.288484|    1.946619|    0.172037|
|         955|           0|   -4.216119|   -1.284845|   -1.779943|    1.343968|    1.946622|    0.172037|
|         956|           0|   -4.228196|   -1.217335|   -1.722580|    1.348724|    1.946627|    0.172037|
|         957|           0|   -4.274143|   -1.204678|   -1.703800|    1.311093|    1.946630|    0.172037|
|         958|           0|   -4.335495|   -1.232340|   -1.721992|    1.241793|    1.946635|    0.172037|
|         959|           0|   -4.389727|   -1.293228|   -1.775600|    1.152358|    1.946640|    0.172038|
|         960|           0|   -4.415429|   -1.386463|   -1.859701|    1.064965|    1.946645|    0.172038|
+-----------------------------------------------------------------------+
|        File Writing Summary       |              Filename             |
+-----------------------------------------------------------------------+
|SU2 restart                        |solution_flow.dat                  |
|Paraview                           |flow.vtu                           |
|Paraview surface                   |surface_flow.vtu                   |
+-----------------------------------------------------------------------+

Writing the forces breakdown file (forces_breakdown.dat).
+-------------------------------------------------------------------------------------------------------+
|  Inner_Iter|   Time_Iter|    rms[Rho]|   rms[RhoU]|   rms[RhoV]|   rms[RhoE]|          CL|          CD|
+-------------------------------------------------------------------------------------------------------+
|         961|           0|   -4.403687|   -1.515988|   -1.952392|    1.026056|    1.946649|    0.172038|
|         962|           0|   -4.365041|   -1.685920|   -2.001714|    1.062880|    1.946654|    0.172038|
|         963|           0|   -4.316461|   -1.841169|   -1.978523|    1.138607|    1.946658|    0.172038|
|         964|           0|   -4.267247|   -1.746267|   -1.918884|    1.219159|    1.946662|    0.172038|
|         965|           0|   -4.216250|   -1.516453|   -1.848304|    1.299542|    1.946665|    0.172038|
|         966|           0|   -4.157793|   -1.311108|   -1.768037|    1.384578|    1.946669|    0.172038|
|         967|           0|   -4.091967|   -1.139572|   -1.678091|    1.473004|    1.946673|    0.172038|
|         968|           0|   -4.203101|   -1.164288|   -1.698640|    1.378330|    1.946677|    0.172039|
|         969|           0|   -4.366967|   -1.270584|   -1.774674|    1.204380|    1.946681|    0.172039|
|         970|           0|   -4.433076|   -1.375649|   -1.849470|    1.078238|    1.946684|    0.172039|
+-----------------------------------------------------------------------+
|        File Writing Summary       |              Filename             |
+-----------------------------------------------------------------------+
|SU2 restart                        |solution_flow.dat                  |
|Paraview                           |flow.vtu                           |
|Paraview surface                   |surface_flow.vtu                   |
+-----------------------------------------------------------------------+

Writing the forces breakdown file (forces_breakdown.dat).
+-------------------------------------------------------------------------------------------------------+
|  Inner_Iter|   Time_Iter|    rms[Rho]|   rms[RhoU]|   rms[RhoV]|   rms[RhoE]|          CL|          CD|
+-------------------------------------------------------------------------------------------------------+
|         971|           0|   -4.431127|   -1.477610|   -1.916145|    1.021920|    1.946688|    0.172039|
|         972|           0|   -4.423131|   -1.574226|   -1.971594|    1.004253|    1.946691|    0.172039|
|         973|           0|   -4.431058|   -1.661392|   -2.013570|    0.989555|    1.946695|    0.172039|
|         974|           0|   -4.458408|   -1.733095|   -2.041511|    0.962461|    1.946699|    0.172039|
|         975|           0|   -4.501480|   -1.784797|   -2.057730|    0.922724|    1.946702|    0.172039|
|         976|           0|   -4.404312|   -2.051495|   -2.058689|    1.060787|    1.946706|    0.172040|
|         977|           0|   -4.302024|   -1.642255|   -1.976123|    1.208384|    1.946710|    0.172040|
|         978|           0|   -4.235201|   -1.391165|   -1.860802|    1.306838|    1.946713|    0.172040|
|         979|           0|   -4.213119|   -1.262979|   -1.769868|    1.351135|    1.946717|    0.172040|
|         980|           0|   -4.233650|   -1.208816|   -1.718843|    1.345972|    1.946721|    0.172040|
+-----------------------------------------------------------------------+
|        File Writing Summary       |              Filename             |
+-----------------------------------------------------------------------+
|SU2 restart                        |solution_flow.dat                  |
|Paraview                           |flow.vtu                           |
|Paraview surface                   |surface_flow.vtu                   |
+-----------------------------------------------------------------------+

Writing the forces breakdown file (forces_breakdown.dat).
+-------------------------------------------------------------------------------------------------------+
|  Inner_Iter|   Time_Iter|    rms[Rho]|   rms[RhoU]|   rms[RhoV]|   rms[RhoE]|          CL|          CD|
+-------------------------------------------------------------------------------------------------------+
|         981|           0|   -4.284754|   -1.205814|   -1.707502|    1.300600|    1.946723|    0.172040|
|         982|           0|   -4.346489|   -1.241073|   -1.733759|    1.225943|    1.946726|    0.172040|
|         983|           0|   -4.396454|   -1.308904|   -1.796104|    1.134206|    1.946729|    0.172040|
|         984|           0|   -4.414581|   -1.409595|   -1.888194|    1.052258|    1.946733|    0.172040|
|         985|           0|   -4.395745|   -1.547887|   -1.981737|    1.029464|    1.946736|    0.172040|
|         986|           0|   -4.353903|   -1.725062|   -2.017723|    1.078522|    1.946739|    0.172040|
|         987|           0|   -4.304849|   -1.848825|   -1.980326|    1.156856|    1.946742|    0.172040|
|         988|           0|   -4.255776|   -1.699587|   -1.913887|    1.236962|    1.946745|    0.172040|
|         989|           0|   -4.203689|   -1.470130|   -1.838803|    1.317880|    1.946748|    0.172040|
|         990|           0|   -4.143442|   -1.271800|   -1.754110|    1.404004|    1.946751|    0.172040|
+-----------------------------------------------------------------------+
|        File Writing Summary       |              Filename             |
+-----------------------------------------------------------------------+
|SU2 restart                        |solution_flow.dat                  |
|Paraview                           |flow.vtu                           |
|Paraview surface                   |surface_flow.vtu                   |
+-----------------------------------------------------------------------+

Writing the forces breakdown file (forces_breakdown.dat).
+-------------------------------------------------------------------------------------------------------+
|  Inner_Iter|   Time_Iter|    rms[Rho]|   rms[RhoU]|   rms[RhoV]|   rms[RhoE]|          CL|          CD|
+-------------------------------------------------------------------------------------------------------+
|         991|           0|   -4.077111|   -1.107005|   -1.661457|    1.491964|    1.946754|    0.172040|
|         992|           0|   -4.247603|   -1.189897|   -1.718862|    1.334982|    1.946758|    0.172040|
|         993|           0|   -4.389744|   -1.296297|   -1.798227|    1.169627|    1.946761|    0.172041|
|         994|           0|   -4.432480|   -1.400998|   -1.874585|    1.061284|    1.946764|    0.172041|
|         995|           0|   -4.425397|   -1.502186|   -1.942439|    1.018590|    1.946767|    0.172041|
|         996|           0|   -4.421170|   -1.597329|   -1.998789|    1.003489|    1.946769|    0.172041|
|         997|           0|   -4.434103|   -1.681774|   -2.040971|    0.986288|    1.946771|    0.172041|
|         998|           0|   -4.466015|   -1.749356|   -2.068395|    0.955442|    1.946774|    0.172041|
|         999|           0|   -4.488898|   -1.850892|   -2.087149|    0.940831|    1.946778|    0.172042|

----------------------------- Solver Exit -------------------------------

Maximum number of iterations reached (ITER = 1000) before convergence.
+-----------------------------------------------------------------------+
|      Convergence Field     |     Value    |   Criterion  |  Converged |
+-----------------------------------------------------------------------+
|                  Cauchy[CD]|   1.23156e-06|       < 1e-10|          No|
+-----------------------------------------------------------------------+
-------------------------------------------------------------------------
+-----------------------------------------------------------------------+
|        File Writing Summary       |              Filename             |
+-----------------------------------------------------------------------+
|SU2 restart                        |solution_flow.dat                  |
|Paraview                           |flow.vtu                           |
|Paraview surface                   |surface_flow.vtu                   |
+-----------------------------------------------------------------------+

Writing the forces breakdown file (forces_breakdown.dat).

------------------------- Solver Postprocessing -------------------------
Deleted CNumerics container.
Deleted CIntegration container.
Deleted CSolver container.
Deleted CIteration container.
Deleted CInterpolator container.
Deleted CInterface container.
Deleted CGeometry container.
Deleted CFreeFormDefBox class.
Deleted CSurfaceMovement class.
Deleted CVolumetricMovement class.
Deleted CConfig container.
Deleted nInst container.
Deleted COutput class.
-------------------------------------------------------------------------

------------------------- Exit Success (SU2_CFD) ------------------------

