
-------------------------------------------------------------------------
|    ___ _   _ ___                                                      |
|   / __| | | |_  )   Release 7.0.3 "Blackbird"                         |
|   \__ \ |_| |/ /                                                      |
|   |___/\___//___|   Suite (Computational Fluid Dynamics Code)         |
|                                                                       |
-------------------------------------------------------------------------
| SU2 Project Website: https://su2code.github.io                        |
|                                                                       |
| The SU2 Project is maintained by the SU2 Foundation                   |
| (http://su2foundation.org)                                            |
-------------------------------------------------------------------------
| Copyright 2012-2020, SU2 Contributors                                 |
|                                                                       |
| SU2 is free software; you can redistribute it and/or                  |
| modify it under the terms of the GNU Lesser General Public            |
| License as published by the Free Software Foundation; either          |
| version 2.1 of the License, or (at your option) any later version.    |
|                                                                       |
| SU2 is distributed in the hope that it will be useful,                |
| but WITHOUT ANY WARRANTY; without even the implied warranty of        |
| MERCHANTABILITY or FITNESS FOR A PARTICULAR PURPOSE. See the GNU      |
| Lesser General Public License for more details.                       |
|                                                                       |
| You should have received a copy of the GNU Lesser General Public      |
| License along with SU2. If not, see <http://www.gnu.org/licenses/>.   |
-------------------------------------------------------------------------

Parsing config file for zone 0

----------------- Physical Case Definition ( Zone 0 ) -------------------
Compressible Euler equations.
Mach number: 0.294.
Angle of attack (AoA): 10 deg, and angle of sideslip (AoS): 0 deg.
No restart solution, use the values at infinity (freestream).
Dimensional simulation.
The reference area is 10 m^2.
The semi-span will be computed using the max y(3D) value.
The reference length is 1 m.
Reference origin for moment evaluation is (0, 0, 0).
Surface(s) where the force coefficients are evaluated: Wing_1.

Surface(s) where the objective function is evaluated: airfoil.
Surface(s) plotted in the output file: Wing_1.
Surface(s) to be analyzed in detail: airfoil.
Surface(s) affected by the design variables: Wing_1.
Input mesh file name: /users/disk9/cfse2/Documents/aeroframe_2/test/static/4_TBD_WingValidationSU2FramAT_case1/CFD/MESH/FlyingWing_baseline.su2

--------------- Space Numerical Integration ( Zone 0 ) ------------------
Roe (with entropy fix = 0) solver for the flow inviscid terms.
Roe with DDES's FD low-dissipation function.
Second order integration in space, with slope limiter.
Venkatakrishnan slope-limiting method, with constant: 0.05. 
The reference element size is: 1. 
Gradient for upwind reconstruction: Green-Gauss.
Gradient for viscous and source terms: Green-Gauss.

--------------- Time Numerical Integration  ( Zone 0 ) ------------------
Local time stepping (steady state simulation).
Euler implicit method for the flow equations.
FGMRES is used for solving the linear system.
Using a ILU(0) preconditioning.
Convergence criteria of the linear solver: 1e-06.
Max number of linear iterations: 5.
V Multigrid Cycle, with 3 multigrid levels.
Damping factor for the residual restriction: 0.75.
Damping factor for the correction prolongation: 0.75.
No CFL adaptation.
+-------------------------------------------+
|  MG Level| Presmooth|PostSmooth|CorrectSmo|
+-------------------------------------------+
|         0|         1|         0|         0|
|         1|         2|         0|         0|
|         2|         3|         0|         0|
|         3|         3|         0|         0|
+-------------------------------------------+
Courant-Friedrichs-Lewy number:        1

------------------ Convergence Criteria  ( Zone 0 ) ---------------------
Maximum number of solver subiterations: 500.
Begin convergence monitoring at iteration 10.
Residual minimum value: 1e-8.
Cauchy series min. value: 1e-10.
Number of Cauchy elements: 100.
Begin windowed time average at iteration 15.

-------------------- Output Information ( Zone 0 ) ----------------------
Writing solution files every 10 iterations.
Writing the convergence history file every 1 inner iterations.
Writing the screen convergence history every 1 inner iterations.
The tabular file format is Tecplot (.dat).
Convergence history file name: history.
Forces breakdown file name: forces_breakdown.dat.
Surface file name: surface_flow.
Volume file name: flow.
Restart file name: solution_flow.dat.

------------- Config File Boundary Information ( Zone 0 ) ---------------
+-----------------------------------------------------------------------+
|                        Marker Type|                        Marker Name|
+-----------------------------------------------------------------------+
|                         Euler wall|                             Wing_1|
+-----------------------------------------------------------------------+
|                          Far-field|                           Farfield|
+-----------------------------------------------------------------------+
|                     Symmetry plane|                                  0|
+-----------------------------------------------------------------------+
|           Deformable mesh boundary|                            airfoil|
+-----------------------------------------------------------------------+

-------------------- Output Preprocessing ( Zone 0 ) --------------------
Screen output fields: INNER_ITER, TIME_ITER, RMS_DENSITY, RMS_MOMENTUM-X, RMS_MOMENTUM-Y, RMS_ENERGY, LIFT, DRAG
  Info: Ignoring the following history output groups:
  TIME_ITER
History output group(s): ITER, RMS_RES, AERO_COEFF
Warning: No (valid) fields chosen for convergence monitoring. Convergence monitoring inactive.
Warning: No (valid) fields chosen for time convergence monitoring. Time convergence monitoring inactive.
Volume output fields: COORDINATES, SOLUTION, PRIMITIVE

------------------- Geometry Preprocessing ( Zone 0 ) -------------------
Three dimensional problem.
22536 grid points before partitioning.
124963 volume elements before partitioning.
2 surface markers.
9464 boundary elements in index 0 (Marker = Wing_1).
1280 boundary elements in index 1 (Marker = Farfield).
Executing the partitioning functions.
Building the graph adjacency structure.
Calling ParMETIS... graph partitioning complete (10046 edge cuts).
Distributing ParMETIS coloring.
Rebalancing vertices.
Rebalancing volume element connectivity.
Rebalancing markers and surface elements.
28543 vertices including ghost points. 
140385 interior elements including halo cells. 
140385 tetrahedra.
Establishing MPI communication patterns.
Setting point connectivity.
Renumbering points (Reverse Cuthill McKee Ordering).
Recomputing point connectivity.
Setting element connectivity.
Checking the numerical grid orientation.
Identifying edges and vertices.
Computing centers of gravity.
Setting the control volume structure.
Volume of the computational grid: 591132.
Searching for the closest normal neighbors to the surfaces.
Storing a mapping from global to local point index.
Compute the surface curvature.
Max K: 297.548. Mean K: 17.9815. Standard deviation K: 32.2218.
Checking for periodicity.
Computing mesh quality statistics for the dual control volumes.
+--------------------------------------------------------------+
|           Mesh Quality Metric|        Minimum|        Maximum|
+--------------------------------------------------------------+
|    Orthogonality Angle (deg.)|        48.0804|        83.3655|
|     CV Face Area Aspect Ratio|        1.52538|        92.5841|
|           CV Sub-Volume Ratio|        1.00352|        288.741|
+--------------------------------------------------------------+
Setting the multigrid structure.
+-------------------------------------------+
|  MG Level|       CVs|Aggl. Rate|       CFL|
+-------------------------------------------+
|         0|     28543|    1/1.00|         1|
|         1|      7404|    1/3.86|  0.956636|
Finding max control volume width.
Communicating number of neighbors.
Semi-span length = 5 m.
Wetted area = 41.6472 m^2.
Area projection in the x-plane = 2.97651 m^2, y-plane = 0.416191 m^2, z-plane = 19.8441 m^2.
Max. coordinate in the x-direction = 1.02355 m, y-direction = 5 m, z-direction = 0.162771 m.
Min. coordinate in the x-direction = -0.997056 m, y-direction = -5 m, z-direction = -0.136184 m.
Checking if Euler & Symmetry markers are straight/plane:
Boundary marker Wing_1 is NOT a single plane.
Boundary marker 0 is a single plane.

-------------------- Solver Preprocessing ( Zone 0 ) --------------------
Inviscid flow: Computing density based on free-stream
temperature and pressure using the ideal gas law.
Force coefficients computed using free-stream values.

-- Models:
+------------------------------------------------------------------------------+
|          Viscosity Model|        Conductivity Model|              Fluid Model|
+------------------------------------------------------------------------------+
|                        -|                         -|             STANDARD_AIR|
+------------------------------------------------------------------------------+
-- Fluid properties:
+------------------------------------------------------------------------------+
|                  Name|    Dim. value|    Ref. value|      Unit|Non-dim. value|
+------------------------------------------------------------------------------+
|          Gas Constant|       287.058|             1|  N.m/kg.K|       287.058|
|      Spec. Heat Ratio|             -|             -|         -|           1.4|
+------------------------------------------------------------------------------+
-- Initial and free-stream conditions:
+------------------------------------------------------------------------------+
|                  Name|    Dim. value|    Ref. value|      Unit|Non-dim. value|
+------------------------------------------------------------------------------+
|       Static Pressure|        101325|             1|        Pa|        101325|
|               Density|       1.22498|             1|    kg/m^3|       1.22498|
|           Temperature|        288.15|             1|         K|        288.15|
|          Total Energy|        211794|             1|   m^2/s^2|        211794|
|            Velocity-X|       98.5274|             1|       m/s|       98.5274|
|            Velocity-Y|             0|             1|       m/s|             0|
|            Velocity-Z|        17.373|             1|       m/s|        17.373|
|    Velocity Magnitude|       100.047|             1|       m/s|       100.047|
+------------------------------------------------------------------------------+
|           Mach Number|             -|             -|         -|         0.294|
+------------------------------------------------------------------------------+
Initialize Jacobian structure (Euler). MG level: 0.
Initialize Jacobian structure (Euler). MG level: 1.

------------------- Numerics Preprocessing ( Zone 0 ) -------------------

----------------- Integration Preprocessing ( Zone 0 ) ------------------

------------------- Iteration Preprocessing ( Zone 0 ) ------------------
Euler/Navier-Stokes/RANS fluid iteration.

------------------------------ Begin Solver -----------------------------

Simulation Run using the Single-zone Driver
+-------------------------------------------------------------------------------------------------------+
|  Inner_Iter|   Time_Iter|    rms[Rho]|   rms[RhoU]|   rms[RhoV]|   rms[RhoE]|          CL|          CD|
+-------------------------------------------------------------------------------------------------------+
|           0|           0|   -0.859619|    1.283784|   -0.077555|    4.609481|    1.352635|    0.623453|
|           1|           0|   -0.955282|    1.198466|    0.375512|    4.513268|    2.417192|    1.096789|
|           2|           0|   -1.006149|    1.183347|    0.563535|    4.463271|    3.215594|    1.434626|
|           3|           0|   -1.012522|    1.220156|    0.667249|    4.457818|    3.781510|    1.655911|
|           4|           0|   -0.997351|    1.275776|    0.744340|    4.473301|    4.149766|    1.779826|
|           5|           0|   -0.978045|    1.334596|    0.812024|    4.492640|    4.354006|    1.825004|
|           6|           0|   -0.961260|    1.392364|    0.876149|    4.509569|    4.427368|    1.809143|
|           7|           0|   -0.947317|    1.448378|    0.938480|    4.523897|    4.400048|    1.747861|
|           8|           0|   -0.934680|    1.502111|    1.000114|    4.537107|    4.298406|    1.654467|
|           9|           0|   -0.921887|    1.552945|    1.061559|    4.550535|    4.144445|    1.539941|
|          10|           0|   -0.908240|    1.600184|    1.122635|    4.564780|    3.956827|    1.413643|
+-----------------------------------------------------------------------+
|        File Writing Summary       |              Filename             |
+-----------------------------------------------------------------------+
|SU2 restart                        |solution_flow.dat                  |
|Paraview                           |flow.vtu                           |
|Paraview surface                   |surface_flow.vtu                   |
+-----------------------------------------------------------------------+

Writing the forces breakdown file (forces_breakdown.dat).
+-------------------------------------------------------------------------------------------------------+
|  Inner_Iter|   Time_Iter|    rms[Rho]|   rms[RhoU]|   rms[RhoV]|   rms[RhoE]|          CL|          CD|
+-------------------------------------------------------------------------------------------------------+
|          11|           0|   -0.893501|    1.643345|    1.183202|    4.579959|    3.750202|    1.282866|
|          12|           0|   -0.877593|    1.682196|    1.242975|    4.596100|    3.535474|    1.152831|
|          13|           0|   -0.860554|    1.716854|    1.301733|    4.613137|    3.320264|    1.027092|
|          14|           0|   -0.842460|    1.747586|    1.359111|    4.630930|    3.109399|    0.907816|
|          15|           0|   -0.823792|    1.774818|    1.414866|    4.648955|    2.905726|    0.796132|
|          16|           0|   -0.805437|    1.798891|    1.468625|    4.666310|    2.710701|    0.692449|
|          17|           0|   -0.788015|    1.820066|    1.519871|    4.682352|    2.524829|    0.596707|
|          18|           0|   -0.771930|    1.838498|    1.568094|    4.696656|    2.347957|    0.508532|
|          19|           0|   -0.757219|    1.854307|    1.612491|    4.709212|    2.179503|    0.427412|
|          20|           0|   -0.743449|    1.867470|    1.652392|    4.720485|    2.018725|    0.352765|
+-----------------------------------------------------------------------+
|        File Writing Summary       |              Filename             |
+-----------------------------------------------------------------------+
|SU2 restart                        |solution_flow.dat                  |
|Paraview                           |flow.vtu                           |
|Paraview surface                   |surface_flow.vtu                   |
+-----------------------------------------------------------------------+

Writing the forces breakdown file (forces_breakdown.dat).
+-------------------------------------------------------------------------------------------------------+
|  Inner_Iter|   Time_Iter|    rms[Rho]|   rms[RhoU]|   rms[RhoV]|   rms[RhoE]|          CL|          CD|
+-------------------------------------------------------------------------------------------------------+
|          21|           0|   -0.729955|    1.877800|    1.687297|    4.731186|    1.865042|    0.284065|
|          22|           0|   -0.715752|    1.885084|    1.716628|    4.742446|    1.717914|    0.220864|
|          23|           0|   -0.699886|    1.888927|    1.739992|    4.755465|    1.576940|    0.162774|
|          24|           0|   -0.681556|    1.889244|    1.757073|    4.771434|    1.441817|    0.109431|
|          25|           0|   -0.660466|    1.886144|    1.767754|    4.791015|    1.312464|    0.060524|
|          26|           0|   -0.636886|    1.879970|    1.772189|    4.814238|    1.188726|    0.015764|
|          27|           0|   -0.611609|    1.871811|    1.770933|    4.840324|    1.070547|   -0.025078|
|          28|           0|   -0.585771|    1.863780|    1.765394|    4.867977|    0.957949|   -0.062191|
|          29|           0|   -0.561086|    1.858639|    1.757366|    4.895162|    0.850974|   -0.095747|
|          30|           0|   -0.538168|    1.858684|    1.750779|    4.921078|    0.749851|   -0.125863|
+-----------------------------------------------------------------------+
|        File Writing Summary       |              Filename             |
+-----------------------------------------------------------------------+
|SU2 restart                        |solution_flow.dat                  |
|Paraview                           |flow.vtu                           |
|Paraview surface                   |surface_flow.vtu                   |
+-----------------------------------------------------------------------+

Writing the forces breakdown file (forces_breakdown.dat).
+-------------------------------------------------------------------------------------------------------+
|  Inner_Iter|   Time_Iter|    rms[Rho]|   rms[RhoU]|   rms[RhoV]|   rms[RhoE]|          CL|          CD|
+-------------------------------------------------------------------------------------------------------+
|          31|           0|   -0.518097|    1.866580|    1.750595|    4.944384|    0.654801|   -0.152636|
|          32|           0|   -0.501653|    1.883354|    1.761609|    4.963908|    0.566006|   -0.176150|
|          33|           0|   -0.488997|    1.906970|    1.784246|    4.979301|    0.483711|   -0.196465|
|          34|           0|   -0.479751|    1.934353|    1.817107|    4.990827|    0.408165|   -0.213623|
|          35|           0|   -0.473736|    1.962226|    1.855979|    4.998341|    0.339647|   -0.227644|
|          36|           0|   -0.469845|    1.987395|    1.895968|    5.002789|    0.278439|   -0.238539|
|          37|           0|   -0.467217|    2.007869|    1.932797|    5.004777|    0.224850|   -0.246305|
|          38|           0|   -0.464043|    2.022720|    1.964077|    5.005998|    0.179256|   -0.250928|
|          39|           0|   -0.459026|    2.030639|    1.988379|    5.007853|    0.141970|   -0.252383|
|          40|           0|   -0.452092|    2.031584|    2.004319|    5.010733|    0.113288|   -0.250647|
+-----------------------------------------------------------------------+
|        File Writing Summary       |              Filename             |
+-----------------------------------------------------------------------+
|SU2 restart                        |solution_flow.dat                  |
|Paraview                           |flow.vtu                           |
|Paraview surface                   |surface_flow.vtu                   |
+-----------------------------------------------------------------------+

Writing the forces breakdown file (forces_breakdown.dat).
+-------------------------------------------------------------------------------------------------------+
|  Inner_Iter|   Time_Iter|    rms[Rho]|   rms[RhoU]|   rms[RhoV]|   rms[RhoE]|          CL|          CD|
+-------------------------------------------------------------------------------------------------------+
|          41|           0|   -0.441735|    2.025682|    2.011940|    5.016716|    0.093517|   -0.245703|
|          42|           0|   -0.428840|    2.013304|    2.011122|    5.025601|    0.082969|   -0.237538|
|          43|           0|   -0.413323|    1.997354|    2.002076|    5.038242|    0.081914|   -0.226170|
|          44|           0|   -0.396460|    1.980331|    1.985777|    5.053711|    0.090640|   -0.211610|
|          45|           0|   -0.379894|    1.965300|    1.963333|    5.070221|    0.109272|   -0.193931|
|          46|           0|   -0.364399|    1.956106|    1.937673|    5.086786|    0.137916|   -0.173206|
|          47|           0|   -0.350813|    1.955083|    1.913959|    5.102315|    0.176527|   -0.149573|
|          48|           0|   -0.340207|    1.964080|    1.898836|    5.115349|    0.225119|   -0.123162|
|          49|           0|   -0.333299|    1.981262|    1.896465|    5.124757|    0.283426|   -0.094202|
|          50|           0|   -0.329297|    2.004386|    1.909694|    5.130992|    0.351149|   -0.062936|
+-----------------------------------------------------------------------+
|        File Writing Summary       |              Filename             |
+-----------------------------------------------------------------------+
|SU2 restart                        |solution_flow.dat                  |
|Paraview                           |flow.vtu                           |
|Paraview surface                   |surface_flow.vtu                   |
+-----------------------------------------------------------------------+

Writing the forces breakdown file (forces_breakdown.dat).
+-------------------------------------------------------------------------------------------------------+
|  Inner_Iter|   Time_Iter|    rms[Rho]|   rms[RhoU]|   rms[RhoV]|   rms[RhoE]|          CL|          CD|
+-------------------------------------------------------------------------------------------------------+
|          51|           0|   -0.327410|    2.029214|    1.936637|    5.134843|    0.427888|   -0.029643|
|          52|           0|   -0.327529|    2.051731|    1.971223|    5.135999|    0.513068|    0.005336|
|          53|           0|   -0.329298|    2.071005|    2.008200|    5.134676|    0.605983|    0.041635|
|          54|           0|   -0.332054|    2.086065|    2.043721|    5.131429|    0.705846|    0.078883|
|          55|           0|   -0.334574|    2.096314|    2.075546|    5.127264|    0.811824|    0.116694|
|          56|           0|   -0.336307|    2.103110|    2.102178|    5.122837|    0.922841|    0.154632|
|          57|           0|   -0.336391|    2.105936|    2.123393|    5.119189|    1.037782|    0.192274|
|          58|           0|   -0.335777|    2.105609|    2.139353|    5.115579|    1.155494|    0.229188|
|          59|           0|   -0.334847|    2.102661|    2.149960|    5.111986|    1.274772|    0.264936|
|          60|           0|   -0.332558|    2.098632|    2.155682|    5.109904|    1.394311|    0.299083|
+-----------------------------------------------------------------------+
|        File Writing Summary       |              Filename             |
+-----------------------------------------------------------------------+
|SU2 restart                        |solution_flow.dat                  |
|Paraview                           |flow.vtu                           |
|Paraview surface                   |surface_flow.vtu                   |
+-----------------------------------------------------------------------+

Writing the forces breakdown file (forces_breakdown.dat).
+-------------------------------------------------------------------------------------------------------+
|  Inner_Iter|   Time_Iter|    rms[Rho]|   rms[RhoU]|   rms[RhoV]|   rms[RhoE]|          CL|          CD|
+-------------------------------------------------------------------------------------------------------+
|          61|           0|   -0.330279|    2.093903|    2.157141|    5.108129|    1.512765|    0.331240|
|          62|           0|   -0.328674|    2.089161|    2.154470|    5.106343|    1.628815|    0.361041|
|          63|           0|   -0.327862|    2.084104|    2.147894|    5.104595|    1.741181|    0.388147|
|          64|           0|   -0.327804|    2.077341|    2.137580|    5.103094|    1.848659|    0.412233|
|          65|           0|   -0.328830|    2.069185|    2.124072|    5.101511|    1.950040|    0.433016|
|          66|           0|   -0.330591|    2.059590|    2.107397|    5.100269|    2.044231|    0.450282|
|          67|           0|   -0.332847|    2.048518|    2.087710|    5.099518|    2.130123|    0.463845|
|          68|           0|   -0.335235|    2.035550|    2.064282|    5.099512|    2.206761|    0.473583|
|          69|           0|   -0.337321|    2.020989|    2.038311|    5.100638|    2.273172|    0.479409|
|          70|           0|   -0.338924|    2.005576|    2.011186|    5.102769|    2.328533|    0.481296|
+-----------------------------------------------------------------------+
|        File Writing Summary       |              Filename             |
+-----------------------------------------------------------------------+
|SU2 restart                        |solution_flow.dat                  |
|Paraview                           |flow.vtu                           |
|Paraview surface                   |surface_flow.vtu                   |
+-----------------------------------------------------------------------+

Writing the forces breakdown file (forces_breakdown.dat).
+-------------------------------------------------------------------------------------------------------+
|  Inner_Iter|   Time_Iter|    rms[Rho]|   rms[RhoU]|   rms[RhoV]|   rms[RhoE]|          CL|          CD|
+-------------------------------------------------------------------------------------------------------+
|          71|           0|   -0.341050|    1.988816|    1.984654|    5.104395|    2.372241|    0.479292|
|          72|           0|   -0.343047|    1.974065|    1.961218|    5.105974|    2.403791|    0.473479|
|          73|           0|   -0.345294|    1.962317|    1.944405|    5.106883|    2.422840|    0.463981|
|          74|           0|   -0.348346|    1.955473|    1.937521|    5.106264|    2.429292|    0.450988|
|          75|           0|   -0.351316|    1.954974|    1.941684|    5.104916|    2.423227|    0.434727|
|          76|           0|   -0.354971|    1.960963|    1.955135|    5.101864|    2.404926|    0.415465|
|          77|           0|   -0.359718|    1.972857|    1.974871|    5.096711|    2.374941|    0.393524|
|          78|           0|   -0.364651|    1.989619|    1.999118|    5.090302|    2.333847|    0.369232|
|          79|           0|   -0.369954|    2.008797|    2.023878|    5.082636|    2.282338|    0.342941|
|          80|           0|   -0.376785|    2.027983|    2.046850|    5.072396|    2.221343|    0.315036|
+-----------------------------------------------------------------------+
|        File Writing Summary       |              Filename             |
+-----------------------------------------------------------------------+
|SU2 restart                        |solution_flow.dat                  |
|Paraview                           |flow.vtu                           |
|Paraview surface                   |surface_flow.vtu                   |
+-----------------------------------------------------------------------+

Writing the forces breakdown file (forces_breakdown.dat).
+-------------------------------------------------------------------------------------------------------+
|  Inner_Iter|   Time_Iter|    rms[Rho]|   rms[RhoU]|   rms[RhoV]|   rms[RhoE]|          CL|          CD|
+-------------------------------------------------------------------------------------------------------+
|          81|           0|   -0.383898|    2.045611|    2.066604|    5.061161|    2.151972|    0.285913|
|          82|           0|   -0.391153|    2.060876|    2.082601|    5.049195|    2.075381|    0.255983|
|          83|           0|   -0.399157|    2.073049|    2.094256|    5.036182|    1.992833|    0.225652|
|          84|           0|   -0.408300|    2.081757|    2.101938|    5.021911|    1.905611|    0.195324|
|          85|           0|   -0.418641|    2.086680|    2.105352|    5.006547|    1.815078|    0.165394|
|          86|           0|   -0.429587|    2.087665|    2.104466|    4.991260|    1.722559|    0.136241|
|          87|           0|   -0.440874|    2.084927|    2.099151|    4.976594|    1.629376|    0.108238|
|          88|           0|   -0.452726|    2.078455|    2.088923|    4.962556|    1.536846|    0.081726|
|          89|           0|   -0.463512|    2.066771|    2.073077|    4.951401|    1.446271|    0.057025|
|          90|           0|   -0.474117|    2.050691|    2.052275|    4.942026|    1.358924|    0.034415|
+-----------------------------------------------------------------------+
|        File Writing Summary       |              Filename             |
+-----------------------------------------------------------------------+
|SU2 restart                        |solution_flow.dat                  |
|Paraview                           |flow.vtu                           |
|Paraview surface                   |surface_flow.vtu                   |
+-----------------------------------------------------------------------+

Writing the forces breakdown file (forces_breakdown.dat).
+-------------------------------------------------------------------------------------------------------+
|  Inner_Iter|   Time_Iter|    rms[Rho]|   rms[RhoU]|   rms[RhoV]|   rms[RhoE]|          CL|          CD|
+-------------------------------------------------------------------------------------------------------+
|          91|           0|   -0.482710|    2.029690|    2.026371|    4.936680|    1.275906|    0.014145|
|          92|           0|   -0.489210|    2.004078|    1.995246|    4.934871|    1.198257|   -0.003578|
|          93|           0|   -0.493969|    1.973731|    1.958280|    4.935783|    1.126847|   -0.018588|
|          94|           0|   -0.497868|    1.938728|    1.915189|    4.937871|    1.062425|   -0.030758|
|          95|           0|   -0.502025|    1.899486|    1.870823|    4.939475|    1.005641|   -0.040012|
|          96|           0|   -0.505783|    1.857962|    1.824781|    4.941161|    0.956991|   -0.046312|
|          97|           0|   -0.511503|    1.815781|    1.782505|    4.939903|    0.916836|   -0.049672|
|          98|           0|   -0.518634|    1.777149|    1.746635|    4.936413|    0.885417|   -0.050130|
|          99|           0|   -0.527682|    1.746509|    1.724379|    4.930079|    0.862880|   -0.047767|
|         100|           0|   -0.538339|    1.727126|    1.718174|    4.921282|    0.849185|   -0.042704|
+-----------------------------------------------------------------------+
|        File Writing Summary       |              Filename             |
+-----------------------------------------------------------------------+
|SU2 restart                        |solution_flow.dat                  |
|Paraview                           |flow.vtu                           |
|Paraview surface                   |surface_flow.vtu                   |
+-----------------------------------------------------------------------+

Writing the forces breakdown file (forces_breakdown.dat).
+-------------------------------------------------------------------------------------------------------+
|  Inner_Iter|   Time_Iter|    rms[Rho]|   rms[RhoU]|   rms[RhoV]|   rms[RhoE]|          CL|          CD|
+-------------------------------------------------------------------------------------------------------+
|         101|           0|   -0.551296|    1.721643|    1.726683|    4.909257|    0.844187|   -0.035091|
|         102|           0|   -0.565524|    1.729468|    1.745694|    4.895085|    0.847619|   -0.025116|
|         103|           0|   -0.582225|    1.747046|    1.770053|    4.877318|    0.859117|   -0.012992|
|         104|           0|   -0.600296|    1.768782|    1.795126|    4.857261|    0.878242|    0.001042|
|         105|           0|   -0.618856|    1.792506|    1.819033|    4.835758|    0.904561|    0.016750|
|         106|           0|   -0.637729|    1.814972|    1.840117|    4.812874|    0.937480|    0.033862|
|         107|           0|   -0.656664|    1.834551|    1.857632|    4.788990|    0.976363|    0.052113|
|         108|           0|   -0.674704|    1.850798|    1.871207|    4.765417|    1.020525|    0.071219|
|         109|           0|   -0.692102|    1.863272|    1.880961|    4.741885|    1.069290|    0.090906|
|         110|           0|   -0.708450|    1.871947|    1.886843|    4.719145|    1.121870|    0.110875|
+-----------------------------------------------------------------------+
|        File Writing Summary       |              Filename             |
+-----------------------------------------------------------------------+
|SU2 restart                        |solution_flow.dat                  |
|Paraview                           |flow.vtu                           |
|Paraview surface                   |surface_flow.vtu                   |
+-----------------------------------------------------------------------+

Writing the forces breakdown file (forces_breakdown.dat).
+-------------------------------------------------------------------------------------------------------+
|  Inner_Iter|   Time_Iter|    rms[Rho]|   rms[RhoU]|   rms[RhoV]|   rms[RhoE]|          CL|          CD|
+-------------------------------------------------------------------------------------------------------+
|         111|           0|   -0.724203|    1.877807|    1.889104|    4.696953|    1.177558|    0.130876|
|         112|           0|   -0.738564|    1.880142|    1.887906|    4.676740|    1.235575|    0.150638|
|         113|           0|   -0.751994|    1.878438|    1.883170|    4.658194|    1.295198|    0.169917|
|         114|           0|   -0.764280|    1.873624|    1.875068|    4.642321|    1.355759|    0.188506|
|         115|           0|   -0.775429|    1.865494|    1.863854|    4.629139|    1.416490|    0.206178|
|         116|           0|   -0.784628|    1.854216|    1.849617|    4.619751|    1.476782|    0.222764|
|         117|           0|   -0.791899|    1.840122|    1.832619|    4.614281|    1.536029|    0.238094|
|         118|           0|   -0.797306|    1.822993|    1.813098|    4.612294|    1.593626|    0.252015|
|         119|           0|   -0.801690|    1.802939|    1.790938|    4.612304|    1.649024|    0.264407|
|         120|           0|   -0.805497|    1.780006|    1.766568|    4.613512|    1.701799|    0.275183|
+-----------------------------------------------------------------------+
|        File Writing Summary       |              Filename             |
+-----------------------------------------------------------------------+
|SU2 restart                        |solution_flow.dat                  |
|Paraview                           |flow.vtu                           |
|Paraview surface                   |surface_flow.vtu                   |
+-----------------------------------------------------------------------+

Writing the forces breakdown file (forces_breakdown.dat).
+-------------------------------------------------------------------------------------------------------+
|  Inner_Iter|   Time_Iter|    rms[Rho]|   rms[RhoU]|   rms[RhoV]|   rms[RhoE]|          CL|          CD|
+-------------------------------------------------------------------------------------------------------+
|         121|           0|   -0.808971|    1.754617|    1.740487|    4.615338|    1.751458|    0.284238|
|         122|           0|   -0.812197|    1.726775|    1.712556|    4.617350|    1.797600|    0.291517|
|         123|           0|   -0.816147|    1.697232|    1.683507|    4.618392|    1.839828|    0.296963|
|         124|           0|   -0.820688|    1.666080|    1.654174|    4.618519|    1.877900|    0.300574|
|         125|           0|   -0.826231|    1.634163|    1.625328|    4.617233|    1.911556|    0.302343|
|         126|           0|   -0.833037|    1.602514|    1.598151|    4.614229|    1.940660|    0.302317|
|         127|           0|   -0.841258|    1.572309|    1.573961|    4.609272|    1.964999|    0.300513|
|         128|           0|   -0.850976|    1.545796|    1.554303|    4.602291|    1.984514|    0.297010|
|         129|           0|   -0.862195|    1.524715|    1.540176|    4.593201|    1.999148|    0.291885|
|         130|           0|   -0.874352|    1.510569|    1.531847|    4.582616|    2.008929|    0.285243|
+-----------------------------------------------------------------------+
|        File Writing Summary       |              Filename             |
+-----------------------------------------------------------------------+
|SU2 restart                        |solution_flow.dat                  |
|Paraview                           |flow.vtu                           |
|Paraview surface                   |surface_flow.vtu                   |
+-----------------------------------------------------------------------+

Writing the forces breakdown file (forces_breakdown.dat).
+-------------------------------------------------------------------------------------------------------+
|  Inner_Iter|   Time_Iter|    rms[Rho]|   rms[RhoU]|   rms[RhoV]|   rms[RhoE]|          CL|          CD|
+-------------------------------------------------------------------------------------------------------+
|         131|           0|   -0.887279|    1.503165|    1.529260|    4.570720|    2.013950|    0.277212|
|         132|           0|   -0.900628|    1.502682|    1.531857|    4.557801|    2.014272|    0.267909|
|         133|           0|   -0.914233|    1.508475|    1.538316|    4.544003|    2.010028|    0.257474|
|         134|           0|   -0.927512|    1.519242|    1.547378|    4.529922|    2.001382|    0.246051|
|         135|           0|   -0.940072|    1.533420|    1.557534|    4.515920|    1.988630|    0.233818|
|         136|           0|   -0.951667|    1.548531|    1.567814|    4.502163|    1.972052|    0.220949|
|         137|           0|   -0.962069|    1.563727|    1.577555|    4.488965|    1.951902|    0.207599|
|         138|           0|   -0.971012|    1.578264|    1.586263|    4.476697|    1.928466|    0.193932|
|         139|           0|   -0.978554|    1.591741|    1.593488|    4.465458|    1.902050|    0.180107|
|         140|           0|   -0.984769|    1.603346|    1.598981|    4.455281|    1.873079|    0.166297|
+-----------------------------------------------------------------------+
|        File Writing Summary       |              Filename             |
+-----------------------------------------------------------------------+
|SU2 restart                        |solution_flow.dat                  |
|Paraview                           |flow.vtu                           |
|Paraview surface                   |surface_flow.vtu                   |
+-----------------------------------------------------------------------+

Writing the forces breakdown file (forces_breakdown.dat).
+-------------------------------------------------------------------------------------------------------+
|  Inner_Iter|   Time_Iter|    rms[Rho]|   rms[RhoU]|   rms[RhoV]|   rms[RhoE]|          CL|          CD|
+-------------------------------------------------------------------------------------------------------+
|         141|           0|   -0.989753|    1.613564|    1.602570|    4.446357|    1.841894|    0.152655|
|         142|           0|   -0.993887|    1.622094|    1.604138|    4.438466|    1.808881|    0.139336|
|         143|           0|   -0.997405|    1.628728|    1.603493|    4.431473|    1.774394|    0.126488|
|         144|           0|   -1.000746|    1.633348|    1.600531|    4.424996|    1.738788|    0.114254|
|         145|           0|   -1.003940|    1.635839|    1.595254|    4.419173|    1.702455|    0.102768|
|         146|           0|   -1.007447|    1.636178|    1.587637|    4.413539|    1.665816|    0.092151|
|         147|           0|   -1.011474|    1.634248|    1.577621|    4.407892|    1.629294|    0.082522|
|         148|           0|   -1.016023|    1.630207|    1.565095|    4.402310|    1.593267|    0.073974|
|         149|           0|   -1.021352|    1.624551|    1.549960|    4.396583|    1.558107|    0.066587|
|         150|           0|   -1.027504|    1.617119|    1.532192|    4.390670|    1.524185|    0.060429|
+-----------------------------------------------------------------------+
|        File Writing Summary       |              Filename             |
+-----------------------------------------------------------------------+
|SU2 restart                        |solution_flow.dat                  |
|Paraview                           |flow.vtu                           |
|Paraview surface                   |surface_flow.vtu                   |
+-----------------------------------------------------------------------+

Writing the forces breakdown file (forces_breakdown.dat).
+-------------------------------------------------------------------------------------------------------+
|  Inner_Iter|   Time_Iter|    rms[Rho]|   rms[RhoU]|   rms[RhoV]|   rms[RhoE]|          CL|          CD|
+-------------------------------------------------------------------------------------------------------+
|         151|           0|   -1.034386|    1.608036|    1.511880|    4.384697|    1.491846|    0.055550|
|         152|           0|   -1.041875|    1.597251|    1.489041|    4.378794|    1.461438|    0.051987|
|         153|           0|   -1.049718|    1.584827|    1.463558|    4.373134|    1.433249|    0.049754|
|         154|           0|   -1.058123|    1.570879|    1.435496|    4.367417|    1.407548|    0.048848|
|         155|           0|   -1.067273|    1.555140|    1.404967|    4.361411|    1.384570|    0.049251|
|         156|           0|   -1.077033|    1.537759|    1.372350|    4.355154|    1.364554|    0.050935|
|         157|           0|   -1.087015|    1.519751|    1.338337|    4.348954|    1.347652|    0.053849|
|         158|           0|   -1.097177|    1.501817|    1.303756|    4.342711|    1.333956|    0.057925|
|         159|           0|   -1.107787|    1.484597|    1.269889|    4.336058|    1.323560|    0.063082|
|         160|           0|   -1.118995|    1.468170|    1.238622|    4.328627|    1.316541|    0.069237|
+-----------------------------------------------------------------------+
|        File Writing Summary       |              Filename             |
+-----------------------------------------------------------------------+
|SU2 restart                        |solution_flow.dat                  |
|Paraview                           |flow.vtu                           |
|Paraview surface                   |surface_flow.vtu                   |
+-----------------------------------------------------------------------+

Writing the forces breakdown file (forces_breakdown.dat).
+-------------------------------------------------------------------------------------------------------+
|  Inner_Iter|   Time_Iter|    rms[Rho]|   rms[RhoU]|   rms[RhoV]|   rms[RhoE]|          CL|          CD|
+-------------------------------------------------------------------------------------------------------+
|         161|           0|   -1.130669|    1.452546|    1.211651|    4.320271|    1.312924|    0.076292|
|         162|           0|   -1.143046|    1.438001|    1.190938|    4.310724|    1.312691|    0.084138|
|         163|           0|   -1.156068|    1.425263|    1.178312|    4.300005|    1.315767|    0.092661|
|         164|           0|   -1.169745|    1.414753|    1.173734|    4.288004|    1.322059|    0.101742|
|         165|           0|   -1.183970|    1.406414|    1.176100|    4.274775|    1.331464|    0.111262|
|         166|           0|   -1.198702|    1.400438|    1.183731|    4.260290|    1.343869|    0.121104|
|         167|           0|   -1.213968|    1.396242|    1.194524|    4.244455|    1.359108|    0.131140|
|         168|           0|   -1.229482|    1.393259|    1.206509|    4.227628|    1.376999|    0.141248|
|         169|           0|   -1.245434|    1.391374|    1.218360|    4.209592|    1.397266|    0.151293|
|         170|           0|   -1.260982|    1.389951|    1.228854|    4.191350|    1.419704|    0.161171|
+-----------------------------------------------------------------------+
|        File Writing Summary       |              Filename             |
+-----------------------------------------------------------------------+
|SU2 restart                        |solution_flow.dat                  |
|Paraview                           |flow.vtu                           |
|Paraview surface                   |surface_flow.vtu                   |
+-----------------------------------------------------------------------+

Writing the forces breakdown file (forces_breakdown.dat).
+-------------------------------------------------------------------------------------------------------+
|  Inner_Iter|   Time_Iter|    rms[Rho]|   rms[RhoU]|   rms[RhoV]|   rms[RhoE]|          CL|          CD|
+-------------------------------------------------------------------------------------------------------+
|         171|           0|   -1.276226|    1.388067|    1.236898|    4.172816|    1.444052|    0.170773|
|         172|           0|   -1.291412|    1.386295|    1.242459|    4.153863|    1.470036|    0.179998|
|         173|           0|   -1.306070|    1.383787|    1.245431|    4.135073|    1.497364|    0.188750|
|         174|           0|   -1.320142|    1.380571|    1.245621|    4.116783|    1.525700|    0.196926|
|         175|           0|   -1.333865|    1.376399|    1.242815|    4.098913|    1.554715|    0.204431|
|         176|           0|   -1.346840|    1.370989|    1.236994|    4.082099|    1.584110|    0.211195|
|         177|           0|   -1.358895|    1.363754|    1.228047|    4.066606|    1.613588|    0.217159|
|         178|           0|   -1.369908|    1.354831|    1.215947|    4.052992|    1.642807|    0.222261|
|         179|           0|   -1.379911|    1.344310|    1.200781|    4.041341|    1.671443|    0.226453|
|         180|           0|   -1.388883|    1.331895|    1.182465|    4.031714|    1.699191|    0.229702|
+-----------------------------------------------------------------------+
|        File Writing Summary       |              Filename             |
+-----------------------------------------------------------------------+
|SU2 restart                        |solution_flow.dat                  |
|Paraview                           |flow.vtu                           |
|Paraview surface                   |surface_flow.vtu                   |
+-----------------------------------------------------------------------+

Writing the forces breakdown file (forces_breakdown.dat).
+-------------------------------------------------------------------------------------------------------+
|  Inner_Iter|   Time_Iter|    rms[Rho]|   rms[RhoU]|   rms[RhoV]|   rms[RhoE]|          CL|          CD|
+-------------------------------------------------------------------------------------------------------+
|         181|           0|   -1.396999|    1.317826|    1.161233|    4.023937|    1.725783|    0.231990|
|         182|           0|   -1.404598|    1.302251|    1.137210|    4.017568|    1.750927|    0.233301|
|         183|           0|   -1.411889|    1.285248|    1.110499|    4.012162|    1.774381|    0.233639|
|         184|           0|   -1.419171|    1.266924|    1.081219|    4.007230|    1.795923|    0.233017|
|         185|           0|   -1.426678|    1.247280|    1.049594|    4.002316|    1.815377|    0.231467|
|         186|           0|   -1.434764|    1.226629|    1.016111|    3.996982|    1.832570|    0.229021|
|         187|           0|   -1.443827|    1.205447|    0.981394|    3.990627|    1.847355|    0.225725|
|         188|           0|   -1.454176|    1.184179|    0.946607|    3.982759|    1.859634|    0.221636|
|         189|           0|   -1.466016|    1.163280|    0.913031|    3.973082|    1.869301|    0.216805|
|         190|           0|   -1.479298|    1.143048|    0.882167|    3.961648|    1.876347|    0.211317|
+-----------------------------------------------------------------------+
|        File Writing Summary       |              Filename             |
+-----------------------------------------------------------------------+
|SU2 restart                        |solution_flow.dat                  |
|Paraview                           |flow.vtu                           |
|Paraview surface                   |surface_flow.vtu                   |
+-----------------------------------------------------------------------+

Writing the forces breakdown file (forces_breakdown.dat).
+-------------------------------------------------------------------------------------------------------+
|  Inner_Iter|   Time_Iter|    rms[Rho]|   rms[RhoU]|   rms[RhoV]|   rms[RhoE]|          CL|          CD|
+-------------------------------------------------------------------------------------------------------+
|         191|           0|   -1.494088|    1.123772|    0.855490|    3.948280|    1.880730|    0.205239|
|         192|           0|   -1.510226|    1.105719|    0.834011|    3.933148|    1.882482|    0.198660|
|         193|           0|   -1.527483|    1.089810|    0.818801|    3.916415|    1.881659|    0.191667|
|         194|           0|   -1.545492|    1.075401|    0.809572|    3.898390|    1.878372|    0.184356|
|         195|           0|   -1.564314|    1.060579|    0.804755|    3.878736|    1.872722|    0.176816|
|         196|           0|   -1.583122|    1.048195|    0.803934|    3.858639|    1.864813|    0.169130|
|         197|           0|   -1.601612|    1.037415|    0.805580|    3.838337|    1.854776|    0.161389|
|         198|           0|   -1.619516|    1.027870|    0.808489|    3.818069|    1.842758|    0.153673|
|         199|           0|   -1.636140|    1.019447|    0.811687|    3.798713|    1.828944|    0.146075|
|         200|           0|   -1.651313|    1.011910|    0.814579|    3.780558|    1.813489|    0.138668|
+-----------------------------------------------------------------------+
|        File Writing Summary       |              Filename             |
+-----------------------------------------------------------------------+
|SU2 restart                        |solution_flow.dat                  |
|Paraview                           |flow.vtu                           |
|Paraview surface                   |surface_flow.vtu                   |
+-----------------------------------------------------------------------+

Writing the forces breakdown file (forces_breakdown.dat).
+-------------------------------------------------------------------------------------------------------+
|  Inner_Iter|   Time_Iter|    rms[Rho]|   rms[RhoU]|   rms[RhoV]|   rms[RhoE]|          CL|          CD|
+-------------------------------------------------------------------------------------------------------+
|         201|           0|   -1.664624|    1.004943|    0.816670|    3.764257|    1.796598|    0.131538|
|         202|           0|   -1.676030|    0.998138|    0.817759|    3.749976|    1.778462|    0.124748|
|         203|           0|   -1.685462|    0.991322|    0.817732|    3.738071|    1.759325|    0.118375|
|         204|           0|   -1.693091|    0.984421|    0.816660|    3.728553|    1.739401|    0.112472|
|         205|           0|   -1.699151|    0.977151|    0.814654|    3.721338|    1.718946|    0.107102|
|         206|           0|   -1.703994|    0.969321|    0.811862|    3.716064|    1.698188|    0.102310|
|         207|           0|   -1.708021|    0.960739|    0.808402|    3.712268|    1.677397|    0.098143|
|         208|           0|   -1.711700|    0.951415|    0.804323|    3.709408|    1.656802|    0.094629|
|         209|           0|   -1.715360|    0.941548|    0.799740|    3.707044|    1.636652|    0.091798|
|         210|           0|   -1.719316|    0.931064|    0.794758|    3.704732|    1.617158|    0.089659|
+-----------------------------------------------------------------------+
|        File Writing Summary       |              Filename             |
+-----------------------------------------------------------------------+
|SU2 restart                        |solution_flow.dat                  |
|Paraview                           |flow.vtu                           |
|Paraview surface                   |surface_flow.vtu                   |
+-----------------------------------------------------------------------+

Writing the forces breakdown file (forces_breakdown.dat).
+-------------------------------------------------------------------------------------------------------+
|  Inner_Iter|   Time_Iter|    rms[Rho]|   rms[RhoU]|   rms[RhoV]|   rms[RhoE]|          CL|          CD|
+-------------------------------------------------------------------------------------------------------+
|         211|           0|   -1.723683|    0.919917|    0.789383|    3.702298|    1.598547|    0.088228|
|         212|           0|   -1.728429|    0.908138|    0.783602|    3.699676|    1.580986|    0.087497|
|         213|           0|   -1.733555|    0.895790|    0.777342|    3.696722|    1.564675|    0.087462|
|         214|           0|   -1.738995|    0.883014|    0.770513|    3.693400|    1.549765|    0.088103|
|         215|           0|   -1.744527|    0.869338|    0.762882|    3.689786|    1.536413|    0.089400|
|         216|           0|   -1.749987|    0.855317|    0.754438|    3.686023|    1.524722|    0.091309|
|         217|           0|   -1.755169|    0.841272|    0.745071|    3.682242|    1.514803|    0.093798|
|         218|           0|   -1.759877|    0.827419|    0.734766|    3.678581|    1.506700|    0.096815|
|         219|           0|   -1.763718|    0.813961|    0.723513|    3.675399|    1.500478|    0.100318|
|         220|           0|   -1.766208|    0.801366|    0.711488|    3.673203|    1.496150|    0.104248|
+-----------------------------------------------------------------------+
|        File Writing Summary       |              Filename             |
+-----------------------------------------------------------------------+
|SU2 restart                        |solution_flow.dat                  |
|Paraview                           |flow.vtu                           |
|Paraview surface                   |surface_flow.vtu                   |
+-----------------------------------------------------------------------+

Writing the forces breakdown file (forces_breakdown.dat).
+-------------------------------------------------------------------------------------------------------+
|  Inner_Iter|   Time_Iter|    rms[Rho]|   rms[RhoU]|   rms[RhoV]|   rms[RhoE]|          CL|          CD|
+-------------------------------------------------------------------------------------------------------+
|         221|           0|   -1.767131|    0.790098|    0.698928|    3.672212|    1.493758|    0.108560|
|         222|           0|   -1.766290|    0.780602|    0.686271|    3.672713|    1.493266|    0.113186|
|         223|           0|   -1.763752|    0.773423|    0.674083|    3.674688|    1.494654|    0.118069|
|         224|           0|   -1.759642|    0.769148|    0.663059|    3.678105|    1.497875|    0.123148|
|         225|           0|   -1.754210|    0.768123|    0.654070|    3.682815|    1.502850|    0.128359|
|         226|           0|   -1.747792|    0.770419|    0.648195|    3.688504|    1.509524|    0.133646|
|         227|           0|   -1.740483|    0.776097|    0.646377|    3.695191|    1.517776|    0.138944|
|         228|           0|   -1.732829|    0.784924|    0.649278|    3.702304|    1.527488|    0.144196|
|         229|           0|   -1.725254|    0.796391|    0.657142|    3.709375|    1.538536|    0.149352|
|         230|           0|   -1.717861|    0.809925|    0.669770|    3.716357|    1.550766|    0.154354|
+-----------------------------------------------------------------------+
|        File Writing Summary       |              Filename             |
+-----------------------------------------------------------------------+
|SU2 restart                        |solution_flow.dat                  |
|Paraview                           |flow.vtu                           |
|Paraview surface                   |surface_flow.vtu                   |
+-----------------------------------------------------------------------+

Writing the forces breakdown file (forces_breakdown.dat).
+-------------------------------------------------------------------------------------------------------+
|  Inner_Iter|   Time_Iter|    rms[Rho]|   rms[RhoU]|   rms[RhoV]|   rms[RhoE]|          CL|          CD|
+-------------------------------------------------------------------------------------------------------+
|         231|           0|   -1.711005|    0.824907|    0.686464|    3.722852|    1.564046|    0.159160|
|         232|           0|   -1.705018|    0.840763|    0.706191|    3.728504|    1.578190|    0.163714|
|         233|           0|   -1.699960|    0.856875|    0.727835|    3.733239|    1.593032|    0.167975|
|         234|           0|   -1.695996|    0.872708|    0.750303|    3.736839|    1.608402|    0.171905|
|         235|           0|   -1.693147|    0.887787|    0.772688|    3.739261|    1.624132|    0.175475|
|         236|           0|   -1.691460|    0.901861|    0.794300|    3.740438|    1.640055|    0.178658|
|         237|           0|   -1.690853|    0.914683|    0.814605|    3.740415|    1.656034|    0.181445|
|         238|           0|   -1.691512|    0.926021|    0.833226|    3.738996|    1.671853|    0.183798|
|         239|           0|   -1.693248|    0.935700|    0.849829|    3.736382|    1.687361|    0.185712|
|         240|           0|   -1.695923|    0.943635|    0.864215|    3.732717|    1.702415|    0.187185|
+-----------------------------------------------------------------------+
|        File Writing Summary       |              Filename             |
+-----------------------------------------------------------------------+
|SU2 restart                        |solution_flow.dat                  |
|Paraview                           |flow.vtu                           |
|Paraview surface                   |surface_flow.vtu                   |
+-----------------------------------------------------------------------+

Writing the forces breakdown file (forces_breakdown.dat).
+-------------------------------------------------------------------------------------------------------+
|  Inner_Iter|   Time_Iter|    rms[Rho]|   rms[RhoU]|   rms[RhoV]|   rms[RhoE]|          CL|          CD|
+-------------------------------------------------------------------------------------------------------+
|         241|           0|   -1.699432|    0.949704|    0.876273|    3.728175|    1.716864|    0.188214|
|         242|           0|   -1.703526|    0.953785|    0.885891|    3.723064|    1.730577|    0.188806|
|         243|           0|   -1.708025|    0.955789|    0.893013|    3.717648|    1.743452|    0.188974|
|         244|           0|   -1.712519|    0.955635|    0.897507|    3.712474|    1.755336|    0.188718|
|         245|           0|   -1.716706|    0.953252|    0.899336|    3.707950|    1.766131|    0.188055|
|         246|           0|   -1.720297|    0.948532|    0.898458|    3.704466|    1.775744|    0.187005|
|         247|           0|   -1.723084|    0.941487|    0.894809|    3.702344|    1.784095|    0.185591|
|         248|           0|   -1.724803|    0.932042|    0.888312|    3.701882|    1.791102|    0.183830|
|         249|           0|   -1.725179|    0.920135|    0.878908|    3.703392|    1.796768|    0.181770|
|         250|           0|   -1.724060|    0.905700|    0.866571|    3.706963|    1.801024|    0.179427|
+-----------------------------------------------------------------------+
|        File Writing Summary       |              Filename             |
+-----------------------------------------------------------------------+
|SU2 restart                        |solution_flow.dat                  |
|Paraview                           |flow.vtu                           |
|Paraview surface                   |surface_flow.vtu                   |
+-----------------------------------------------------------------------+

Writing the forces breakdown file (forces_breakdown.dat).
+-------------------------------------------------------------------------------------------------------+
|  Inner_Iter|   Time_Iter|    rms[Rho]|   rms[RhoU]|   rms[RhoV]|   rms[RhoE]|          CL|          CD|
+-------------------------------------------------------------------------------------------------------+
|         251|           0|   -1.721378|    0.888755|    0.851298|    3.712587|    1.803871|    0.176840|
|         252|           0|   -1.717238|    0.869427|    0.833160|    3.719994|    1.805281|    0.174032|
|         253|           0|   -1.711750|    0.847894|    0.812258|    3.728915|    1.805290|    0.171046|
|         254|           0|   -1.705060|    0.824567|    0.788879|    3.739060|    1.803937|    0.167918|
|         255|           0|   -1.697543|    0.800165|    0.763558|    3.749867|    1.801280|    0.164689|
|         256|           0|   -1.689504|    0.775762|    0.737206|    3.760893|    1.797379|    0.161398|
|         257|           0|   -1.681173|    0.752842|    0.711383|    3.771781|    1.792273|    0.158070|
|         258|           0|   -1.672926|    0.733709|    0.688146|    3.782126|    1.786057|    0.154740|
|         259|           0|   -1.665042|    0.720662|    0.670270|    3.791605|    1.778821|    0.151442|
|         260|           0|   -1.657661|    0.715688|    0.660654|    3.800072|    1.770682|    0.148213|
+-----------------------------------------------------------------------+
|        File Writing Summary       |              Filename             |
+-----------------------------------------------------------------------+
|SU2 restart                        |solution_flow.dat                  |
|Paraview                           |flow.vtu                           |
|Paraview surface                   |surface_flow.vtu                   |
+-----------------------------------------------------------------------+

Writing the forces breakdown file (forces_breakdown.dat).
+-------------------------------------------------------------------------------------------------------+
|  Inner_Iter|   Time_Iter|    rms[Rho]|   rms[RhoU]|   rms[RhoV]|   rms[RhoE]|          CL|          CD|
+-------------------------------------------------------------------------------------------------------+
|         261|           0|   -1.650814|    0.719961|    0.661453|    3.807507|    1.761724|    0.145072|
|         262|           0|   -1.644581|    0.733114|    0.672988|    3.813786|    1.752056|    0.142046|
|         263|           0|   -1.639278|    0.753559|    0.693832|    3.818615|    1.741801|    0.139157|
|         264|           0|   -1.634898|    0.778895|    0.721269|    3.821969|    1.731092|    0.136434|
|         265|           0|   -1.631489|    0.806868|    0.752354|    3.823831|    1.720072|    0.133900|
|         266|           0|   -1.629097|    0.835579|    0.784630|    3.824146|    1.708839|    0.131562|
|         267|           0|   -1.627594|    0.863601|    0.816332|    3.823073|    1.697569|    0.129451|
|         268|           0|   -1.626963|    0.890074|    0.846299|    3.820620|    1.686363|    0.127570|
|         269|           0|   -1.627084|    0.914408|    0.873864|    3.816969|    1.675372|    0.125938|
|         270|           0|   -1.627833|    0.936261|    0.898686|    3.812289|    1.664700|    0.124554|
+-----------------------------------------------------------------------+
|        File Writing Summary       |              Filename             |
+-----------------------------------------------------------------------+
|SU2 restart                        |solution_flow.dat                  |
|Paraview                           |flow.vtu                           |
|Paraview surface                   |surface_flow.vtu                   |
+-----------------------------------------------------------------------+

Writing the forces breakdown file (forces_breakdown.dat).
+-------------------------------------------------------------------------------------------------------+
|  Inner_Iter|   Time_Iter|    rms[Rho]|   rms[RhoU]|   rms[RhoV]|   rms[RhoE]|          CL|          CD|
+-------------------------------------------------------------------------------------------------------+
|         271|           0|   -1.629077|    0.955466|    0.920551|    3.806817|    1.654476|    0.123427|
|         272|           0|   -1.630671|    0.971897|    0.939351|    3.800813|    1.644808|    0.122557|
|         273|           0|   -1.632336|    0.985535|    0.955110|    3.794710|    1.635805|    0.121947|
|         274|           0|   -1.634033|    0.996397|    0.967735|    3.788722|    1.627552|    0.121591|
|         275|           0|   -1.635784|    1.004465|    0.977295|    3.782992|    1.620143|    0.121484|
|         276|           0|   -1.637415|    1.009681|    0.983874|    3.777884|    1.613643|    0.121617|
|         277|           0|   -1.638881|    1.012063|    0.987460|    3.773644|    1.608120|    0.121984|
|         278|           0|   -1.640024|    1.011633|    0.988023|    3.770619|    1.603611|    0.122569|
|         279|           0|   -1.640739|    1.008358|    0.985652|    3.769101|    1.600156|    0.123363|
|         280|           0|   -1.641020|    1.002221|    0.980298|    3.769133|    1.597760|    0.124346|
+-----------------------------------------------------------------------+
|        File Writing Summary       |              Filename             |
+-----------------------------------------------------------------------+
|SU2 restart                        |solution_flow.dat                  |
|Paraview                           |flow.vtu                           |
|Paraview surface                   |surface_flow.vtu                   |
+-----------------------------------------------------------------------+

Writing the forces breakdown file (forces_breakdown.dat).
+-------------------------------------------------------------------------------------------------------+
|  Inner_Iter|   Time_Iter|    rms[Rho]|   rms[RhoU]|   rms[RhoV]|   rms[RhoE]|          CL|          CD|
+-------------------------------------------------------------------------------------------------------+
|         281|           0|   -1.640840|    0.993174|    0.971890|    3.770734|    1.596450|    0.125508|
|         282|           0|   -1.640122|    0.981171|    0.960401|    3.773948|    1.596209|    0.126828|
|         283|           0|   -1.638792|    0.966253|    0.945795|    3.778720|    1.597034|    0.128292|
|         284|           0|   -1.637091|    0.948462|    0.927954|    3.784578|    1.598887|    0.129875|
|         285|           0|   -1.635142|    0.927861|    0.906967|    3.791184|    1.601750|    0.131564|
|         286|           0|   -1.633007|    0.904529|    0.882942|    3.798243|    1.605550|    0.133334|
|         287|           0|   -1.630769|    0.878725|    0.856059|    3.805453|    1.610240|    0.135168|
|         288|           0|   -1.628574|    0.850986|    0.826783|    3.812494|    1.615731|    0.137041|
|         289|           0|   -1.626456|    0.821850|    0.795770|    3.819160|    1.621978|    0.138944|
|         290|           0|   -1.624692|    0.792727|    0.764212|    3.825020|    1.628854|    0.140844|
+-----------------------------------------------------------------------+
|        File Writing Summary       |              Filename             |
+-----------------------------------------------------------------------+
|SU2 restart                        |solution_flow.dat                  |
|Paraview                           |flow.vtu                           |
|Paraview surface                   |surface_flow.vtu                   |
+-----------------------------------------------------------------------+

Writing the forces breakdown file (forces_breakdown.dat).
+-------------------------------------------------------------------------------------------------------+
|  Inner_Iter|   Time_Iter|    rms[Rho]|   rms[RhoU]|   rms[RhoV]|   rms[RhoE]|          CL|          CD|
+-------------------------------------------------------------------------------------------------------+
|         291|           0|   -1.623318|    0.765409|    0.733830|    3.829918|    1.636303|    0.142734|
|         292|           0|   -1.622171|    0.742213|    0.707371|    3.833958|    1.644198|    0.144585|
|         293|           0|   -1.621389|    0.725766|    0.687942|    3.836959|    1.652469|    0.146392|
|         294|           0|   -1.621085|    0.718380|    0.678461|    3.838787|    1.660982|    0.148126|
|         295|           0|   -1.621279|    0.721087|    0.680427|    3.839367|    1.669674|    0.149787|
|         296|           0|   -1.621832|    0.733128|    0.693041|    3.838859|    1.678403|    0.151348|
|         297|           0|   -1.622756|    0.752461|    0.714062|    3.837227|    1.687122|    0.152815|
|         298|           0|   -1.624128|    0.776561|    0.740356|    3.834340|    1.695690|    0.154164|
|         299|           0|   -1.625744|    0.802913|    0.769050|    3.830443|    1.704040|    0.155394|
|         300|           0|   -1.627544|    0.829662|    0.797913|    3.825685|    1.712054|    0.156489|
+-----------------------------------------------------------------------+
|        File Writing Summary       |              Filename             |
+-----------------------------------------------------------------------+
|SU2 restart                        |solution_flow.dat                  |
|Paraview                           |flow.vtu                           |
|Paraview surface                   |surface_flow.vtu                   |
+-----------------------------------------------------------------------+

Writing the forces breakdown file (forces_breakdown.dat).
+-------------------------------------------------------------------------------------------------------+
|  Inner_Iter|   Time_Iter|    rms[Rho]|   rms[RhoU]|   rms[RhoV]|   rms[RhoE]|          CL|          CD|
+-------------------------------------------------------------------------------------------------------+
|         301|           0|   -1.629958|    0.855570|    0.825600|    3.819573|    1.719662|    0.157445|
|         302|           0|   -1.632441|    0.879777|    0.851299|    3.812797|    1.726778|    0.158257|
|         303|           0|   -1.635113|    0.901824|    0.874409|    3.805332|    1.733351|    0.158929|
|         304|           0|   -1.637765|    0.921328|    0.894690|    3.797537|    1.739324|    0.159461|
|         305|           0|   -1.640379|    0.938075|    0.912012|    3.789565|    1.744626|    0.159845|
|         306|           0|   -1.642984|    0.952060|    0.926424|    3.781560|    1.749220|    0.160087|
|         307|           0|   -1.645551|    0.963340|    0.937983|    3.773752|    1.753070|    0.160188|
|         308|           0|   -1.648042|    0.971961|    0.946764|    3.766389|    1.756158|    0.160156|
|         309|           0|   -1.650454|    0.977901|    0.952731|    3.759655|    1.758485|    0.160001|
|         310|           0|   -1.652828|    0.981124|    0.955941|    3.753692|    1.760016|    0.159719|
+-----------------------------------------------------------------------+
|        File Writing Summary       |              Filename             |
+-----------------------------------------------------------------------+
|SU2 restart                        |solution_flow.dat                  |
|Paraview                           |flow.vtu                           |
|Paraview surface                   |surface_flow.vtu                   |
+-----------------------------------------------------------------------+

Writing the forces breakdown file (forces_breakdown.dat).
+-------------------------------------------------------------------------------------------------------+
|  Inner_Iter|   Time_Iter|    rms[Rho]|   rms[RhoU]|   rms[RhoV]|   rms[RhoE]|          CL|          CD|
+-------------------------------------------------------------------------------------------------------+
|         311|           0|   -1.655180|    0.981685|    0.956429|    3.748644|    1.760773|    0.159326|
|         312|           0|   -1.657513|    0.979596|    0.954176|    3.744639|    1.760750|    0.158825|
|         313|           0|   -1.659780|    0.974863|    0.949168|    3.741805|    1.759980|    0.158230|
|         314|           0|   -1.661989|    0.967488|    0.941419|    3.740168|    1.758520|    0.157559|
|         315|           0|   -1.664220|    0.957497|    0.930982|    3.739623|    1.756370|    0.156806|
|         316|           0|   -1.666467|    0.944837|    0.917821|    3.740058|    1.753576|    0.155984|
|         317|           0|   -1.668666|    0.929461|    0.901940|    3.741453|    1.750213|    0.155110|
|         318|           0|   -1.670937|    0.911448|    0.883352|    3.743504|    1.746334|    0.154195|
|         319|           0|   -1.673225|    0.890804|    0.862149|    3.746082|    1.741978|    0.153241|
|         320|           0|   -1.675612|    0.867540|    0.838424|    3.748874|    1.737208|    0.152258|
+-----------------------------------------------------------------------+
|        File Writing Summary       |              Filename             |
+-----------------------------------------------------------------------+
|SU2 restart                        |solution_flow.dat                  |
|Paraview                           |flow.vtu                           |
|Paraview surface                   |surface_flow.vtu                   |
+-----------------------------------------------------------------------+

Writing the forces breakdown file (forces_breakdown.dat).
+-------------------------------------------------------------------------------------------------------+
|  Inner_Iter|   Time_Iter|    rms[Rho]|   rms[RhoU]|   rms[RhoV]|   rms[RhoE]|          CL|          CD|
+-------------------------------------------------------------------------------------------------------+
|         321|           0|   -1.678227|    0.841845|    0.812247|    3.751538|    1.732143|    0.151275|
|         322|           0|   -1.681035|    0.814056|    0.783910|    3.753967|    1.726814|    0.150288|
|         323|           0|   -1.684067|    0.784600|    0.754098|    3.755948|    1.721294|    0.149307|
|         324|           0|   -1.687305|    0.754109|    0.723652|    3.757360|    1.715630|    0.148333|
|         325|           0|   -1.690805|    0.723795|    0.693876|    3.758020|    1.709905|    0.147379|
|         326|           0|   -1.694433|    0.695318|    0.666537|    3.757996|    1.704204|    0.146458|
|         327|           0|   -1.698176|    0.670731|    0.643735|    3.757220|    1.698602|    0.145581|
|         328|           0|   -1.701944|    0.652410|    0.627980|    3.755742|    1.693142|    0.144745|
|         329|           0|   -1.705855|    0.642301|    0.620945|    3.753375|    1.687919|    0.143967|
|         330|           0|   -1.710021|    0.641445|    0.623138|    3.749981|    1.682983|    0.143249|
+-----------------------------------------------------------------------+
|        File Writing Summary       |              Filename             |
+-----------------------------------------------------------------------+
|SU2 restart                        |solution_flow.dat                  |
|Paraview                           |flow.vtu                           |
|Paraview surface                   |surface_flow.vtu                   |
+-----------------------------------------------------------------------+

Writing the forces breakdown file (forces_breakdown.dat).
+-------------------------------------------------------------------------------------------------------+
|  Inner_Iter|   Time_Iter|    rms[Rho]|   rms[RhoU]|   rms[RhoV]|   rms[RhoE]|          CL|          CD|
+-------------------------------------------------------------------------------------------------------+
|         331|           0|   -1.714307|    0.649210|    0.633592|    3.745660|    1.678375|    0.142590|
|         332|           0|   -1.718645|    0.663947|    0.650451|    3.740488|    1.674164|    0.142001|
|         333|           0|   -1.722983|    0.683556|    0.671347|    3.734525|    1.670384|    0.141482|
|         334|           0|   -1.727397|    0.705871|    0.694252|    3.727691|    1.667061|    0.141029|
|         335|           0|   -1.731812|    0.729130|    0.717492|    3.720119|    1.664240|    0.140650|
|         336|           0|   -1.736078|    0.751970|    0.739892|    3.712041|    1.661951|    0.140347|
|         337|           0|   -1.740094|    0.773542|    0.760699|    3.703665|    1.660174|    0.140107|
|         338|           0|   -1.743986|    0.793376|    0.779437|    3.694952|    1.658958|    0.139942|
|         339|           0|   -1.747451|    0.811007|    0.795932|    3.686383|    1.658311|    0.139854|
|         340|           0|   -1.750623|    0.826199|    0.810043|    3.677950|    1.658210|    0.139832|
+-----------------------------------------------------------------------+
|        File Writing Summary       |              Filename             |
+-----------------------------------------------------------------------+
|SU2 restart                        |solution_flow.dat                  |
|Paraview                           |flow.vtu                           |
|Paraview surface                   |surface_flow.vtu                   |
+-----------------------------------------------------------------------+

Writing the forces breakdown file (forces_breakdown.dat).
+-------------------------------------------------------------------------------------------------------+
|  Inner_Iter|   Time_Iter|    rms[Rho]|   rms[RhoU]|   rms[RhoV]|   rms[RhoE]|          CL|          CD|
+-------------------------------------------------------------------------------------------------------+
|         341|           0|   -1.753483|    0.839014|    0.821710|    3.669890|    1.658643|    0.139872|
|         342|           0|   -1.756027|    0.849376|    0.830912|    3.662396|    1.659578|    0.139964|
|         343|           0|   -1.758293|    0.857336|    0.837691|    3.655619|    1.661025|    0.140117|
|         344|           0|   -1.760558|    0.862887|    0.842130|    3.649433|    1.662959|    0.140327|
|         345|           0|   -1.762666|    0.866022|    0.844167|    3.644178|    1.665336|    0.140583|
|         346|           0|   -1.764728|    0.866787|    0.843811|    3.639810|    1.668115|    0.140878|
|         347|           0|   -1.766777|    0.865221|    0.841123|    3.636351|    1.671277|    0.141215|
|         348|           0|   -1.768940|    0.861381|    0.836083|    3.633697|    1.674769|    0.141584|
|         349|           0|   -1.771289|    0.855236|    0.828779|    3.631769|    1.678555|    0.141984|
|         350|           0|   -1.773895|    0.846901|    0.819251|    3.630459|    1.682561|    0.142399|
+-----------------------------------------------------------------------+
[...]
|         405|           0|   -1.979673|    0.419512|    0.392942|    3.477927|    1.695537|    0.146898|
|         406|           0|   -1.981300|    0.425247|    0.404520|    3.475749|    1.697639|    0.147110|
|         407|           0|   -1.982714|    0.436637|    0.420265|    3.473035|    1.699908|    0.147328|
|         408|           0|   -1.983999|    0.452175|    0.438719|    3.469751|    1.702278|    0.147531|
|         409|           0|   -1.985217|    0.470413|    0.458502|    3.465899|    1.704733|    0.147725|
|         410|           0|   -1.986394|    0.489990|    0.478510|    3.461515|    1.707233|    0.147899|
+-----------------------------------------------------------------------+
|        File Writing Summary       |              Filename             |
+-----------------------------------------------------------------------+
|SU2 restart                        |solution_flow.dat                  |
|Paraview                           |flow.vtu                           |
|Paraview surface                   |surface_flow.vtu                   |
+-----------------------------------------------------------------------+

Writing the forces breakdown file (forces_breakdown.dat).
+-------------------------------------------------------------------------------------------------------+
|  Inner_Iter|   Time_Iter|    rms[Rho]|   rms[RhoU]|   rms[RhoV]|   rms[RhoE]|          CL|          CD|
+-------------------------------------------------------------------------------------------------------+
|         411|           0|   -1.987587|    0.509865|    0.497906|    3.456624|    1.709787|    0.148067|
|         412|           0|   -1.988834|    0.529215|    0.516124|    3.451273|    1.712325|    0.148209|
|         413|           0|   -1.990163|    0.547475|    0.532795|    3.445557|    1.714839|    0.148331|
|         414|           0|   -1.991616|    0.564148|    0.547677|    3.439547|    1.717282|    0.148424|
|         415|           0|   -1.993320|    0.579067|    0.560632|    3.433210|    1.719644|    0.148491|
|         416|           0|   -1.995216|    0.592058|    0.571552|    3.426753|    1.721899|    0.148531|
|         417|           0|   -1.997343|    0.602979|    0.580402|    3.420251|    1.724048|    0.148551|
|         418|           0|   -1.999669|    0.611769|    0.587176|    3.413869|    1.726030|    0.148535|
|         419|           0|   -2.002170|    0.618351|    0.591849|    3.407765|    1.727833|    0.148486|
|         420|           0|   -2.005014|    0.622741|    0.594379|    3.401866|    1.729434|    0.148401|
+-----------------------------------------------------------------------+
|        File Writing Summary       |              Filename             |
+-----------------------------------------------------------------------+
|SU2 restart                        |solution_flow.dat                  |
|Paraview                           |flow.vtu                           |
|Paraview surface                   |surface_flow.vtu                   |
+-----------------------------------------------------------------------+

Writing the forces breakdown file (forces_breakdown.dat).
+-------------------------------------------------------------------------------------------------------+
|  Inner_Iter|   Time_Iter|    rms[Rho]|   rms[RhoU]|   rms[RhoV]|   rms[RhoE]|          CL|          CD|
+-------------------------------------------------------------------------------------------------------+
|         421|           0|   -2.008144|    0.624907|    0.594740|    3.396348|    1.730843|    0.148289|
|         422|           0|   -2.011541|    0.624820|    0.592912|    3.391308|    1.732032|    0.148145|
|         423|           0|   -2.015203|    0.622469|    0.588897|    3.386816|    1.733022|    0.147981|
|         424|           0|   -2.019135|    0.617879|    0.582693|    3.382907|    1.733774|    0.147785|
|         425|           0|   -2.023417|    0.611051|    0.574229|    3.379471|    1.734290|    0.147562|
|         426|           0|   -2.027897|    0.601928|    0.563538|    3.376699|    1.734542|    0.147302|
|         427|           0|   -2.032525|    0.590478|    0.550586|    3.374602|    1.734573|    0.147024|
|         428|           0|   -2.037230|    0.576724|    0.535362|    3.373182|    1.734368|    0.146723|
|         429|           0|   -2.042037|    0.560643|    0.517877|    3.372305|    1.733978|    0.146417|
|         430|           0|   -2.046881|    0.542276|    0.498221|    3.371902|    1.733353|    0.146087|
+-----------------------------------------------------------------------+
|        File Writing Summary       |              Filename             |
+-----------------------------------------------------------------------+
|SU2 restart                        |solution_flow.dat                  |
|Paraview                           |flow.vtu                           |
|Paraview surface                   |surface_flow.vtu                   |
+-----------------------------------------------------------------------+

Writing the forces breakdown file (forces_breakdown.dat).
+-------------------------------------------------------------------------------------------------------+
|  Inner_Iter|   Time_Iter|    rms[Rho]|   rms[RhoU]|   rms[RhoV]|   rms[RhoE]|          CL|          CD|
+-------------------------------------------------------------------------------------------------------+
|         431|           0|   -2.051741|    0.521676|    0.476416|    3.371833|    1.732563|    0.145760|
|         432|           0|   -2.056607|    0.499017|    0.452627|    3.371956|    1.731568|    0.145417|
|         433|           0|   -2.061421|    0.474507|    0.427142|    3.372190|    1.730397|    0.145067|
|         434|           0|   -2.066115|    0.448536|    0.400415|    3.372441|    1.729061|    0.144713|
|         435|           0|   -2.070618|    0.421541|    0.373077|    3.372636|    1.727639|    0.144381|
|         436|           0|   -2.074949|    0.394246|    0.346030|    3.372609|    1.726082|    0.144047|
|         437|           0|   -2.079104|    0.367735|    0.320550|    3.372245|    1.724434|    0.143725|
|         438|           0|   -2.083064|    0.343366|    0.298115|    3.371459|    1.722697|    0.143411|
|         439|           0|   -2.086905|    0.322737|    0.280298|    3.370096|    1.720905|    0.143113|
|         440|           0|   -2.090567|    0.307461|    0.268593|    3.368145|    1.719089|    0.142838|
+-----------------------------------------------------------------------+
|        File Writing Summary       |              Filename             |
+-----------------------------------------------------------------------+
|SU2 restart                        |solution_flow.dat                  |
|Paraview                           |flow.vtu                           |
|Paraview surface                   |surface_flow.vtu                   |
+-----------------------------------------------------------------------+

Writing the forces breakdown file (forces_breakdown.dat).
+-------------------------------------------------------------------------------------------------------+
|  Inner_Iter|   Time_Iter|    rms[Rho]|   rms[RhoU]|   rms[RhoV]|   rms[RhoE]|          CL|          CD|
+-------------------------------------------------------------------------------------------------------+
|         441|           0|   -2.094094|    0.298950|    0.263869|    3.365546|    1.717311|    0.142605|
|         442|           0|   -2.097560|    0.297917|    0.266224|    3.362198|    1.715531|    0.142393|
|         443|           0|   -2.100928|    0.303979|    0.274865|    3.358139|    1.713783|    0.142209|
|         444|           0|   -2.104213|    0.315999|    0.288411|    3.353373|    1.712085|    0.142055|
|         445|           0|   -2.107448|    0.332340|    0.305235|    3.347909|    1.710465|    0.141936|
|         446|           0|   -2.110643|    0.351267|    0.323804|    3.341775|    1.708928|    0.141849|
|         447|           0|   -2.113749|    0.371339|    0.342860|    3.335090|    1.707536|    0.141812|
|         448|           0|   -2.116784|    0.391362|    0.361424|    3.327930|    1.706258|    0.141809|
|         449|           0|   -2.119936|    0.410522|    0.378863|    3.320161|    1.705120|    0.141846|
|         450|           0|   -2.123135|    0.428253|    0.394730|    3.311983|    1.704109|    0.141912|
+-----------------------------------------------------------------------+
|        File Writing Summary       |              Filename             |
+-----------------------------------------------------------------------+
|SU2 restart                        |solution_flow.dat                  |
|Paraview                           |flow.vtu                           |
|Paraview surface                   |surface_flow.vtu                   |
+-----------------------------------------------------------------------+

Writing the forces breakdown file (forces_breakdown.dat).
+-------------------------------------------------------------------------------------------------------+
|  Inner_Iter|   Time_Iter|    rms[Rho]|   rms[RhoU]|   rms[RhoV]|   rms[RhoE]|          CL|          CD|
+-------------------------------------------------------------------------------------------------------+
|         451|           0|   -2.126460|    0.444271|    0.408741|    3.303428|    1.703266|    0.142021|
|         452|           0|   -2.129872|    0.458272|    0.420720|    3.294692|    1.702587|    0.142166|
|         453|           0|   -2.133394|    0.470128|    0.430600|    3.285881|    1.702082|    0.142350|
|         454|           0|   -2.136936|    0.479763|    0.438318|    3.277280|    1.701739|    0.142566|
|         455|           0|   -2.140598|    0.487181|    0.443848|    3.268926|    1.701575|    0.142817|
|         456|           0|   -2.144333|    0.492355|    0.447234|    3.261033|    1.701567|    0.143093|
|         457|           0|   -2.148143|    0.495308|    0.448500|    3.253733|    1.701736|    0.143401|
|         458|           0|   -2.151965|    0.496034|    0.447651|    3.247223|    1.702053|    0.143729|
|         459|           0|   -2.155932|    0.494586|    0.444731|    3.241432|    1.702521|    0.144078|
|         460|           0|   -2.160053|    0.490954|    0.439749|    3.236419|    1.703133|    0.144444|
+-----------------------------------------------------------------------+
|        File Writing Summary       |              Filename             |
+-----------------------------------------------------------------------+
|SU2 restart                        |solution_flow.dat                  |
|Paraview                           |flow.vtu                           |
|Paraview surface                   |surface_flow.vtu                   |
+-----------------------------------------------------------------------+

Writing the forces breakdown file (forces_breakdown.dat).
+-------------------------------------------------------------------------------------------------------+
|  Inner_Iter|   Time_Iter|    rms[Rho]|   rms[RhoU]|   rms[RhoV]|   rms[RhoE]|          CL|          CD|
+-------------------------------------------------------------------------------------------------------+
|         461|           0|   -2.164383|    0.485180|    0.432713|    3.232144|    1.703914|    0.144836|
|         462|           0|   -2.168887|    0.477265|    0.423611|    3.228647|    1.704810|    0.145235|
|         463|           0|   -2.173560|    0.467162|    0.412461|    3.225887|    1.705817|    0.145639|
|         464|           0|   -2.178459|    0.454904|    0.399273|    3.223717|    1.706913|    0.146041|
|         465|           0|   -2.183679|    0.440499|    0.384051|    3.221918|    1.708099|    0.146443|
|         466|           0|   -2.189044|    0.423898|    0.366800|    3.220600|    1.709349|    0.146836|
|         467|           0|   -2.194503|    0.405139|    0.347623|    3.219689|    1.710691|    0.147233|
|         468|           0|   -2.200044|    0.384247|    0.326631|    3.219041|    1.712074|    0.147616|
|         469|           0|   -2.205652|    0.361285|    0.303979|    3.218532|    1.713474|    0.147978|
|         470|           0|   -2.211269|    0.336379|    0.279960|    3.218077|    1.714856|    0.148310|
+-----------------------------------------------------------------------+
|        File Writing Summary       |              Filename             |
+-----------------------------------------------------------------------+
|SU2 restart                        |solution_flow.dat                  |
|Paraview                           |flow.vtu                           |
|Paraview surface                   |surface_flow.vtu                   |
+-----------------------------------------------------------------------+

Writing the forces breakdown file (forces_breakdown.dat).
+-------------------------------------------------------------------------------------------------------+
|  Inner_Iter|   Time_Iter|    rms[Rho]|   rms[RhoU]|   rms[RhoV]|   rms[RhoE]|          CL|          CD|
+-------------------------------------------------------------------------------------------------------+
|         471|           0|   -2.216993|    0.309756|    0.254957|    3.217393|    1.716243|    0.148620|
|         472|           0|   -2.222826|    0.281779|    0.229519|    3.216365|    1.717620|    0.148908|
|         473|           0|   -2.228646|    0.253062|    0.204446|    3.215027|    1.718992|    0.149176|
|         474|           0|   -2.234475|    0.224415|    0.180686|    3.213250|    1.720304|    0.149406|
|         475|           0|   -2.240354|    0.196931|    0.159275|    3.210892|    1.721565|    0.149606|
|         476|           0|   -2.246143|    0.172117|    0.141659|    3.208040|    1.722743|    0.149764|
|         477|           0|   -2.251920|    0.151524|    0.128964|    3.204524|    1.723863|    0.149894|
|         478|           0|   -2.257473|    0.136751|    0.121904|    3.200530|    1.724877|    0.149980|
|         479|           0|   -2.262706|    0.128961|    0.120719|    3.196121|    1.725800|    0.150029|
|         480|           0|   -2.267719|    0.128397|    0.125054|    3.191174|    1.726603|    0.150033|
+-----------------------------------------------------------------------+
|        File Writing Summary       |              Filename             |
+-----------------------------------------------------------------------+
|SU2 restart                        |solution_flow.dat                  |
|Paraview                           |flow.vtu                           |
|Paraview surface                   |surface_flow.vtu                   |
+-----------------------------------------------------------------------+

Writing the forces breakdown file (forces_breakdown.dat).
+-------------------------------------------------------------------------------------------------------+
|  Inner_Iter|   Time_Iter|    rms[Rho]|   rms[RhoU]|   rms[RhoV]|   rms[RhoE]|          CL|          CD|
+-------------------------------------------------------------------------------------------------------+
|         481|           0|   -2.272532|    0.134518|    0.134012|    3.185656|    1.727296|    0.149998|
|         482|           0|   -2.277043|    0.146181|    0.146411|    3.179696|    1.727851|    0.149916|
|         483|           0|   -2.281281|    0.161793|    0.161052|    3.173292|    1.728334|    0.149814|
|         484|           0|   -2.285137|    0.179822|    0.176862|    3.166609|    1.728690|    0.149671|
|         485|           0|   -2.288602|    0.198957|    0.192987|    3.159732|    1.728924|    0.149493|
|         486|           0|   -2.291814|    0.218147|    0.208731|    3.152595|    1.729032|    0.149278|
|         487|           0|   -2.294814|    0.236583|    0.223606|    3.145251|    1.729036|    0.149037|
|         488|           0|   -2.297523|    0.253865|    0.237295|    3.137915|    1.728902|    0.148757|
|         489|           0|   -2.300073|    0.269657|    0.249593|    3.130558|    1.728700|    0.148467|
|         490|           0|   -2.302403|    0.283756|    0.260357|    3.123392|    1.728393|    0.148151|
+-----------------------------------------------------------------------+
|        File Writing Summary       |              Filename             |
+-----------------------------------------------------------------------+
|SU2 restart                        |solution_flow.dat                  |
|Paraview                           |flow.vtu                           |
|Paraview surface                   |surface_flow.vtu                   |
+-----------------------------------------------------------------------+

Writing the forces breakdown file (forces_breakdown.dat).
+-------------------------------------------------------------------------------------------------------+
|  Inner_Iter|   Time_Iter|    rms[Rho]|   rms[RhoU]|   rms[RhoV]|   rms[RhoE]|          CL|          CD|
+-------------------------------------------------------------------------------------------------------+
|         491|           0|   -2.304586|    0.296046|    0.269513|    3.116474|    1.727985|    0.147815|
|         492|           0|   -2.306666|    0.306446|    0.277021|    3.109890|    1.727479|    0.147458|
|         493|           0|   -2.308789|    0.314915|    0.282855|    3.103579|    1.726908|    0.147093|
|         494|           0|   -2.310970|    0.321479|    0.287007|    3.097663|    1.726234|    0.146706|
|         495|           0|   -2.313308|    0.326128|    0.289481|    3.092120|    1.725518|    0.146321|
|         496|           0|   -2.315747|    0.328924|    0.290283|    3.087126|    1.724743|    0.145931|
|         497|           0|   -2.318376|    0.329864|    0.289411|    3.082630|    1.723921|    0.145540|
|         498|           0|   -2.321194|    0.328962|    0.286880|    3.078661|    1.723063|    0.145152|
|         499|           0|   -2.324344|    0.326235|    0.282722|    3.075067|    1.722215|    0.144784|

----------------------------- Solver Exit -------------------------------

Maximum number of iterations reached (ITER = 500) before convergence.
+-----------------------------------------------------------------------+
|      Convergence Field     |     Value    |   Criterion  |  Converged |
+-----------------------------------------------------------------------+
|                  Cauchy[CD]|    0.00157804|       < 1e-10|          No|
+-----------------------------------------------------------------------+
-------------------------------------------------------------------------
+-----------------------------------------------------------------------+
|        File Writing Summary       |              Filename             |
+-----------------------------------------------------------------------+
|SU2 restart                        |solution_flow.dat                  |
|Paraview                           |flow.vtu                           |
|Paraview surface                   |surface_flow.vtu                   |
+-----------------------------------------------------------------------+

Writing the forces breakdown file (forces_breakdown.dat).

------------------------- Solver Postprocessing -------------------------
Deleted CNumerics container.
Deleted CIntegration container.
Deleted CSolver container.
Deleted CIteration container.
Deleted CInterpolator container.
Deleted CInterface container.
Deleted CGeometry container.
Deleted CFreeFormDefBox class.
Deleted CSurfaceMovement class.
Deleted CVolumetricMovement class.
Deleted CConfig container.
Deleted nInst container.
Deleted COutput class.
-------------------------------------------------------------------------

------------------------- Exit Success (SU2_CFD) ------------------------

