
-------------------------------------------------------------------------
|    ___ _   _ ___                                                      |
|   / __| | | |_  )   Release 7.0.3 "Blackbird"                         |
|   \__ \ |_| |/ /                                                      |
|   |___/\___//___|   Suite (Computational Fluid Dynamics Code)         |
|                                                                       |
-------------------------------------------------------------------------
| SU2 Project Website: https://su2code.github.io                        |
|                                                                       |
| The SU2 Project is maintained by the SU2 Foundation                   |
| (http://su2foundation.org)                                            |
-------------------------------------------------------------------------
| Copyright 2012-2020, SU2 Contributors                                 |
|                                                                       |
| SU2 is free software; you can redistribute it and/or                  |
| modify it under the terms of the GNU Lesser General Public            |
| License as published by the Free Software Foundation; either          |
| version 2.1 of the License, or (at your option) any later version.    |
|                                                                       |
| SU2 is distributed in the hope that it will be useful,                |
| but WITHOUT ANY WARRANTY; without even the implied warranty of        |
| MERCHANTABILITY or FITNESS FOR A PARTICULAR PURPOSE. See the GNU      |
| Lesser General Public License for more details.                       |
|                                                                       |
| You should have received a copy of the GNU Lesser General Public      |
| License along with SU2. If not, see <http://www.gnu.org/licenses/>.   |
-------------------------------------------------------------------------

Parsing config file for zone 0

----------------- Physical Case Definition ( Zone 0 ) -------------------
Compressible Euler equations.
Mach number: 0.294.
Angle of attack (AoA): 10 deg, and angle of sideslip (AoS): 0 deg.
No restart solution, use the values at infinity (freestream).
Dimensional simulation.
The reference area is 10 m^2.
The semi-span will be computed using the max y(3D) value.
The reference length is 1 m.
Reference origin for moment evaluation is (0, 0, 0).
Surface(s) where the force coefficients are evaluated: Wing_1.

Surface(s) where the objective function is evaluated: airfoil.
Surface(s) plotted in the output file: Wing_1.
Surface(s) to be analyzed in detail: airfoil.
Surface(s) affected by the design variables: Wing_1.
Input mesh file name: deformed.su2

--------------- Space Numerical Integration ( Zone 0 ) ------------------
Roe (with entropy fix = 0) solver for the flow inviscid terms.
Roe with DDES's FD low-dissipation function.
Second order integration in space, with slope limiter.
Venkatakrishnan slope-limiting method, with constant: 0.05. 
The reference element size is: 1. 
Gradient for upwind reconstruction: Green-Gauss.
Gradient for viscous and source terms: Green-Gauss.

--------------- Time Numerical Integration  ( Zone 0 ) ------------------
Local time stepping (steady state simulation).
Euler implicit method for the flow equations.
FGMRES is used for solving the linear system.
Using a ILU(0) preconditioning.
Convergence criteria of the linear solver: 1e-06.
Max number of linear iterations: 5.
V Multigrid Cycle, with 3 multigrid levels.
Damping factor for the residual restriction: 0.75.
Damping factor for the correction prolongation: 0.75.
No CFL adaptation.
+-------------------------------------------+
|  MG Level| Presmooth|PostSmooth|CorrectSmo|
+-------------------------------------------+
|         0|         1|         0|         0|
|         1|         2|         0|         0|
|         2|         3|         0|         0|
|         3|         3|         0|         0|
+-------------------------------------------+
Courant-Friedrichs-Lewy number:        1

------------------ Convergence Criteria  ( Zone 0 ) ---------------------
Maximum number of solver subiterations: 1000.
Begin convergence monitoring at iteration 10.
Residual minimum value: 1e-8.
Cauchy series min. value: 1e-10.
Number of Cauchy elements: 100.
Begin windowed time average at iteration 15.

-------------------- Output Information ( Zone 0 ) ----------------------
Writing solution files every 10 iterations.
Writing the convergence history file every 1 inner iterations.
Writing the screen convergence history every 1 inner iterations.
The tabular file format is Tecplot (.dat).
Convergence history file name: history.
Forces breakdown file name: forces_breakdown.dat.
Surface file name: surface_flow.
Volume file name: flow.
Restart file name: solution_flow.dat.

------------- Config File Boundary Information ( Zone 0 ) ---------------
+-----------------------------------------------------------------------+
|                        Marker Type|                        Marker Name|
+-----------------------------------------------------------------------+
|                         Euler wall|                             Wing_1|
+-----------------------------------------------------------------------+
|                          Far-field|                           Farfield|
+-----------------------------------------------------------------------+
|                     Symmetry plane|                                  0|
+-----------------------------------------------------------------------+
|           Deformable mesh boundary|                            airfoil|
+-----------------------------------------------------------------------+

-------------------- Output Preprocessing ( Zone 0 ) --------------------
Screen output fields: INNER_ITER, TIME_ITER, RMS_DENSITY, RMS_MOMENTUM-X, RMS_MOMENTUM-Y, RMS_ENERGY, LIFT, DRAG
  Info: Ignoring the following history output groups:
  TIME_ITER
History output group(s): ITER, RMS_RES, AERO_COEFF
Warning: No (valid) fields chosen for convergence monitoring. Convergence monitoring inactive.
Warning: No (valid) fields chosen for time convergence monitoring. Time convergence monitoring inactive.
Volume output fields: COORDINATES, SOLUTION, PRIMITIVE

------------------- Geometry Preprocessing ( Zone 0 ) -------------------
Three dimensional problem.
142678 grid points before partitioning.
739205 volume elements before partitioning.
2 surface markers.
99234 boundary elements in index 0 (Marker = Wing_1).
1280 boundary elements in index 1 (Marker = Farfield).
Executing the partitioning functions.
Building the graph adjacency structure.
Calling ParMETIS... graph partitioning complete (18884 edge cuts).
Distributing ParMETIS coloring.
Rebalancing vertices.
Rebalancing volume element connectivity.
Rebalancing markers and surface elements.
153425 vertices including ghost points. 
767118 interior elements including halo cells. 
767118 tetrahedra.
Establishing MPI communication patterns.
Setting point connectivity.
Renumbering points (Reverse Cuthill McKee Ordering).
Recomputing point connectivity.
Setting element connectivity.
Checking the numerical grid orientation.
Identifying edges and vertices.
Computing centers of gravity.
Setting the control volume structure.
Volume of the computational grid: 587307.
Searching for the closest normal neighbors to the surfaces.
Storing a mapping from global to local point index.
Compute the surface curvature.
Max K: 955.34. Mean K: 12.8981. Standard deviation K: 55.0428.
Checking for periodicity.
Computing mesh quality statistics for the dual control volumes.
+--------------------------------------------------------------+
|           Mesh Quality Metric|        Minimum|        Maximum|
+--------------------------------------------------------------+
|    Orthogonality Angle (deg.)|        46.5397|        85.7685|
|     CV Face Area Aspect Ratio|        1.42369|        36.9849|
|           CV Sub-Volume Ratio|        1.02915|        142.639|
+--------------------------------------------------------------+
Setting the multigrid structure.
+-------------------------------------------+
|  MG Level|       CVs|Aggl. Rate|       CFL|
+-------------------------------------------+
|         0|    153425|    1/1.00|         1|
|         1|     27876|     1/5.5|  0.849577|
|         2|      6802|     1/4.1|  0.796335|
Finding max control volume width.
Communicating number of neighbors.
Semi-span length = 4.99276 m.
Wetted area = 42.1887 m^2.
Area projection in the x-plane = 3.07714 m^2, y-plane = 1.50496 m^2, z-plane = 20.1028 m^2.
Max. coordinate in the x-direction = 1.02227 m, y-direction = 4.99276 m, z-direction = 0.475498 m.
Min. coordinate in the x-direction = -1.02473 m, y-direction = -4.99222 m, z-direction = -0.119086 m.
Checking if Euler & Symmetry markers are straight/plane:
Boundary marker Wing_1 is NOT a single plane.
Boundary marker 0 is a single plane.

-------------------- Solver Preprocessing ( Zone 0 ) --------------------
Inviscid flow: Computing density based on free-stream
temperature and pressure using the ideal gas law.
Force coefficients computed using free-stream values.

-- Models:
+------------------------------------------------------------------------------+
|          Viscosity Model|        Conductivity Model|              Fluid Model|
+------------------------------------------------------------------------------+
|                        -|                         -|             STANDARD_AIR|
+------------------------------------------------------------------------------+
-- Fluid properties:
+------------------------------------------------------------------------------+
|                  Name|    Dim. value|    Ref. value|      Unit|Non-dim. value|
+------------------------------------------------------------------------------+
|          Gas Constant|       287.058|             1|  N.m/kg.K|       287.058|
|      Spec. Heat Ratio|             -|             -|         -|           1.4|
+------------------------------------------------------------------------------+
-- Initial and free-stream conditions:
+------------------------------------------------------------------------------+
|                  Name|    Dim. value|    Ref. value|      Unit|Non-dim. value|
+------------------------------------------------------------------------------+
|       Static Pressure|        101325|             1|        Pa|        101325|
|               Density|       1.22498|             1|    kg/m^3|       1.22498|
|           Temperature|        288.15|             1|         K|        288.15|
|          Total Energy|        211794|             1|   m^2/s^2|        211794|
|            Velocity-X|       98.5274|             1|       m/s|       98.5274|
|            Velocity-Y|             0|             1|       m/s|             0|
|            Velocity-Z|        17.373|             1|       m/s|        17.373|
|    Velocity Magnitude|       100.047|             1|       m/s|       100.047|
+------------------------------------------------------------------------------+
|           Mach Number|             -|             -|         -|         0.294|
+------------------------------------------------------------------------------+
Initialize Jacobian structure (Euler). MG level: 0.
Initialize Jacobian structure (Euler). MG level: 1.
Initialize Jacobian structure (Euler). MG level: 2.

------------------- Numerics Preprocessing ( Zone 0 ) -------------------

----------------- Integration Preprocessing ( Zone 0 ) ------------------

------------------- Iteration Preprocessing ( Zone 0 ) ------------------
Euler/Navier-Stokes/RANS fluid iteration.

------------------------------ Begin Solver -----------------------------

Simulation Run using the Single-zone Driver
+-------------------------------------------------------------------------------------------------------+
|  Inner_Iter|   Time_Iter|    rms[Rho]|   rms[RhoU]|   rms[RhoV]|   rms[RhoE]|          CL|          CD|
+-------------------------------------------------------------------------------------------------------+
|           0|           0|   -1.663805|    0.504353|   -0.359612|    3.805295|    2.089996|    0.939736|
|           1|           0|   -1.772002|    0.413937|   -0.138551|    3.697397|    3.639688|    1.622397|
|           2|           0|   -1.774934|    0.445025|    0.050048|    3.696221|    4.720890|    2.082665|
|           3|           0|   -1.720728|    0.530170|    0.166605|    3.751222|    5.416859|    2.359014|
|           4|           0|   -1.657977|    0.626021|    0.262082|    3.814349|    5.805913|    2.488059|
|           5|           0|   -1.599630|    0.722502|    0.354225|    3.873248|    5.958889|    2.504044|
|           6|           0|   -1.545996|    0.817282|    0.447370|    3.927660|    5.936459|    2.437183|
|           7|           0|   -1.496051|    0.908543|    0.541082|    3.978506|    5.789596|    2.313111|
|           8|           0|   -1.449570|    0.994764|    0.633880|    4.025901|    5.561059|    2.153368|
|           9|           0|   -1.406904|    1.074779|    0.724217|    4.069396|    5.285519|    1.975535|
|          10|           0|   -1.368829|    1.147980|    0.810888|    4.108151|    4.987996|    1.792667|
+-----------------------------------------------------------------------+
|        File Writing Summary       |              Filename             |
+-----------------------------------------------------------------------+
|SU2 restart                        |solution_flow.dat                  |
|Paraview                           |flow.vtu                           |
|Paraview surface                   |surface_flow.vtu                   |
+-----------------------------------------------------------------------+

Writing the forces breakdown file (forces_breakdown.dat).
+-------------------------------------------------------------------------------------------------------+
|  Inner_Iter|   Time_Iter|    rms[Rho]|   rms[RhoU]|   rms[RhoV]|   rms[RhoE]|          CL|          CD|
+-------------------------------------------------------------------------------------------------------+
|          11|           0|   -1.335796|    1.214204|    0.892914|    4.141653|    4.685067|    1.613460|
|          12|           0|   -1.308364|    1.273375|    0.969630|    4.169244|    4.387611|    1.443588|
|          13|           0|   -1.286794|    1.325614|    1.040498|    4.190547|    4.101834|    1.286122|
|          14|           0|   -1.271063|    1.371080|    1.105147|    4.205423|    3.830130|    1.141995|
|          15|           0|   -1.261011|    1.409947|    1.163448|    4.213841|    3.572256|    1.010720|
|          16|           0|   -1.256082|    1.442384|    1.215318|    4.216088|    3.326300|    0.890934|
|          17|           0|   -1.255188|    1.468520|    1.260776|    4.212987|    3.089526|    0.780833|
|          18|           0|   -1.256556|    1.488567|    1.299829|    4.206151|    2.858963|    0.678511|
|          19|           0|   -1.257672|    1.502669|    1.332466|    4.198220|    2.631881|    0.582190|
|          20|           0|   -1.255712|    1.511084|    1.358869|    4.192712|    2.406094|    0.490383|
+-----------------------------------------------------------------------+
|        File Writing Summary       |              Filename             |
+-----------------------------------------------------------------------+
|SU2 restart                        |solution_flow.dat                  |
|Paraview                           |flow.vtu                           |
|Paraview surface                   |surface_flow.vtu                   |
+-----------------------------------------------------------------------+

Writing the forces breakdown file (forces_breakdown.dat).
+-------------------------------------------------------------------------------------------------------+
|  Inner_Iter|   Time_Iter|    rms[Rho]|   rms[RhoU]|   rms[RhoV]|   rms[RhoE]|          CL|          CD|
+-------------------------------------------------------------------------------------------------------+
|          21|           0|   -1.248102|    1.514028|    1.379125|    4.193577|    2.180123|    0.401960|
|          22|           0|   -1.233192|    1.511956|    1.393456|    4.204133|    1.953353|    0.316198|
|          23|           0|   -1.211658|    1.505656|    1.402038|    4.224657|    1.725961|    0.232759|
|          24|           0|   -1.185864|    1.495350|    1.405311|    4.252401|    1.498897|    0.151666|
|          25|           0|   -1.158751|    1.481912|    1.403660|    4.283409|    1.273693|    0.073220|
|          26|           0|   -1.133023|    1.466454|    1.397505|    4.313905|    1.052354|   -0.002067|
|          27|           0|   -1.110684|    1.450063|    1.387298|    4.341046|    0.837165|   -0.073561|
|          28|           0|   -1.092985|    1.433561|    1.373985|    4.363105|    0.630506|   -0.140582|
|          29|           0|   -1.080227|    1.417522|    1.358009|    4.379583|    0.434750|   -0.202446|
|          30|           0|   -1.072580|    1.402390|    1.340029|    4.390115|    0.252114|   -0.258525|
+-----------------------------------------------------------------------+
|        File Writing Summary       |              Filename             |
+-----------------------------------------------------------------------+
|SU2 restart                        |solution_flow.dat                  |
|Paraview                           |flow.vtu                           |
|Paraview surface                   |surface_flow.vtu                   |
+-----------------------------------------------------------------------+

Writing the forces breakdown file (forces_breakdown.dat).
+-------------------------------------------------------------------------------------------------------+
|  Inner_Iter|   Time_Iter|    rms[Rho]|   rms[RhoU]|   rms[RhoV]|   rms[RhoE]|          CL|          CD|
+-------------------------------------------------------------------------------------------------------+
|          31|           0|   -1.069090|    1.388432|    1.320363|    4.395562|    0.084632|   -0.308269|
|          32|           0|   -1.068697|    1.376584|    1.299856|    4.396890|   -0.065908|   -0.351236|
|          33|           0|   -1.069973|    1.368108|    1.279002|    4.395548|   -0.197988|   -0.387100|
|          34|           0|   -1.070398|    1.363459|    1.258860|    4.393952|   -0.310374|   -0.415637|
|          35|           0|   -1.068163|    1.363476|    1.240531|    4.394196|   -0.402119|   -0.436733|
|          36|           0|   -1.062806|    1.369211|    1.227403|    4.397230|   -0.472542|   -0.450369|
|          37|           0|   -1.054034|    1.382085|    1.222392|    4.403849|   -0.521224|   -0.456612|
|          38|           0|   -1.043091|    1.402089|    1.229550|    4.412977|   -0.547975|   -0.455596|
|          39|           0|   -1.031295|    1.427700|    1.249937|    4.423630|   -0.552802|   -0.447508|
|          40|           0|   -1.020626|    1.455412|    1.281411|    4.433590|   -0.535925|   -0.432593|
+-----------------------------------------------------------------------+
|        File Writing Summary       |              Filename             |
+-----------------------------------------------------------------------+
|SU2 restart                        |solution_flow.dat                  |
|Paraview                           |flow.vtu                           |
|Paraview surface                   |surface_flow.vtu                   |
+-----------------------------------------------------------------------+

Writing the forces breakdown file (forces_breakdown.dat).
+-------------------------------------------------------------------------------------------------------+
|  Inner_Iter|   Time_Iter|    rms[Rho]|   rms[RhoU]|   rms[RhoV]|   rms[RhoE]|          CL|          CD|
+-------------------------------------------------------------------------------------------------------+
|          41|           0|   -1.013252|    1.482832|    1.320752|    4.440404|   -0.497789|   -0.411145|
|          42|           0|   -1.010246|    1.509007|    1.363306|    4.442829|   -0.439036|   -0.383502|
|          43|           0|   -1.011730|    1.531923|    1.404539|    4.440306|   -0.360505|   -0.350044|
|          44|           0|   -1.017586|    1.550005|    1.441814|    4.432781|   -0.263244|   -0.311203|
|          45|           0|   -1.027746|    1.562980|    1.473389|    4.420280|   -0.148493|   -0.267455|
|          46|           0|   -1.038859|    1.569816|    1.498112|    4.405980|   -0.017706|   -0.219322|
|          47|           0|   -1.050015|    1.570996|    1.515800|    4.391262|    0.127435|   -0.167383|
|          48|           0|   -1.058676|    1.565936|    1.526614|    4.379100|    0.285078|   -0.112264|
|          49|           0|   -1.061776|    1.554921|    1.530661|    4.373586|    0.453218|   -0.054624|
|          50|           0|   -1.058680|    1.537179|    1.527701|    4.375812|    0.629699|    0.004830|
+-----------------------------------------------------------------------+
|        File Writing Summary       |              Filename             |
+-----------------------------------------------------------------------+
|SU2 restart                        |solution_flow.dat                  |
|Paraview                           |flow.vtu                           |
|Paraview surface                   |surface_flow.vtu                   |
+-----------------------------------------------------------------------+

Writing the forces breakdown file (forces_breakdown.dat).
+-------------------------------------------------------------------------------------------------------+
|  Inner_Iter|   Time_Iter|    rms[Rho]|   rms[RhoU]|   rms[RhoV]|   rms[RhoE]|          CL|          CD|
+-------------------------------------------------------------------------------------------------------+
|          51|           0|   -1.050504|    1.513413|    1.518446|    4.385133|    0.812248|    0.065363|
|          52|           0|   -1.038400|    1.484170|    1.502868|    4.400266|    0.998528|    0.126214|
|          53|           0|   -1.024962|    1.451581|    1.482453|    4.417789|    1.186161|    0.186617|
|          54|           0|   -1.012666|    1.418548|    1.458683|    4.434629|    1.372726|    0.245800|
|          55|           0|   -1.003245|    1.388499|    1.433343|    4.448459|    1.555847|    0.303004|
|          56|           0|   -0.997556|    1.364987|    1.409409|    4.458156|    1.733202|    0.357496|
|          57|           0|   -0.995687|    1.352964|    1.390582|    4.463478|    1.902590|    0.408588|
|          58|           0|   -0.999270|    1.352275|    1.380928|    4.462463|    2.061955|    0.455642|
|          59|           0|   -1.007091|    1.362260|    1.382571|    4.456354|    2.209401|    0.498089|
|          60|           0|   -1.018796|    1.379232|    1.394261|    4.445280|    2.343241|    0.535432|
+-----------------------------------------------------------------------+
|        File Writing Summary       |              Filename             |
+-----------------------------------------------------------------------+
|SU2 restart                        |solution_flow.dat                  |
|Paraview                           |flow.vtu                           |
|Paraview surface                   |surface_flow.vtu                   |
+-----------------------------------------------------------------------+

Writing the forces breakdown file (forces_breakdown.dat).
+-------------------------------------------------------------------------------------------------------+
|  Inner_Iter|   Time_Iter|    rms[Rho]|   rms[RhoU]|   rms[RhoV]|   rms[RhoE]|          CL|          CD|
+-------------------------------------------------------------------------------------------------------+
|          61|           0|   -1.033580|    1.400053|    1.413042|    4.429776|    2.462039|    0.567265|
|          62|           0|   -1.049877|    1.421661|    1.435494|    4.411066|    2.564626|    0.593276|
|          63|           0|   -1.066270|    1.441608|    1.458342|    4.390401|    2.650112|    0.613253|
|          64|           0|   -1.081611|    1.459488|    1.479598|    4.368985|    2.717899|    0.627084|
|          65|           0|   -1.096011|    1.474019|    1.497702|    4.346919|    2.767683|    0.634762|
|          66|           0|   -1.107381|    1.484295|    1.512001|    4.327019|    2.799445|    0.636376|
|          67|           0|   -1.114873|    1.490098|    1.522126|    4.310939|    2.813459|    0.632110|
|          68|           0|   -1.119582|    1.492055|    1.528057|    4.298637|    2.810261|    0.622239|
|          69|           0|   -1.122344|    1.490376|    1.529624|    4.290269|    2.790637|    0.607121|
|          70|           0|   -1.124174|    1.484616|    1.526750|    4.285228|    2.755606|    0.587184|
+-----------------------------------------------------------------------+
|        File Writing Summary       |              Filename             |
+-----------------------------------------------------------------------+
|SU2 restart                        |solution_flow.dat                  |
|Paraview                           |flow.vtu                           |
|Paraview surface                   |surface_flow.vtu                   |
+-----------------------------------------------------------------------+

Writing the forces breakdown file (forces_breakdown.dat).
+-------------------------------------------------------------------------------------------------------+
|  Inner_Iter|   Time_Iter|    rms[Rho]|   rms[RhoU]|   rms[RhoV]|   rms[RhoE]|          CL|          CD|
+-------------------------------------------------------------------------------------------------------+
|          71|           0|   -1.125164|    1.474651|    1.519626|    4.283881|    2.706376|    0.562921|
|          72|           0|   -1.126514|    1.461078|    1.508374|    4.284340|    2.644329|    0.534874|
|          73|           0|   -1.127846|    1.443624|    1.493219|    4.286838|    2.570977|    0.503626|
|          74|           0|   -1.129492|    1.422238|    1.474737|    4.290409|    2.487920|    0.469779|
|          75|           0|   -1.132088|    1.396913|    1.453176|    4.293741|    2.396844|    0.433953|
|          76|           0|   -1.135973|    1.368241|    1.429116|    4.296009|    2.299470|    0.396765|
|          77|           0|   -1.141429|    1.336769|    1.403057|    4.296506|    2.197530|    0.358827|
|          78|           0|   -1.148534|    1.304192|    1.376821|    4.294796|    2.092731|    0.320724|
|          79|           0|   -1.158086|    1.271842|    1.351902|    4.289958|    1.986715|    0.283012|
|          80|           0|   -1.169220|    1.241866|    1.329446|    4.282859|    1.881033|    0.246204|
+-----------------------------------------------------------------------+
|        File Writing Summary       |              Filename             |
+-----------------------------------------------------------------------+
|SU2 restart                        |solution_flow.dat                  |
|Paraview                           |flow.vtu                           |
|Paraview surface                   |surface_flow.vtu                   |
+-----------------------------------------------------------------------+

Writing the forces breakdown file (forces_breakdown.dat).
+-------------------------------------------------------------------------------------------------------+
|  Inner_Iter|   Time_Iter|    rms[Rho]|   rms[RhoU]|   rms[RhoV]|   rms[RhoE]|          CL|          CD|
+-------------------------------------------------------------------------------------------------------+
|          81|           0|   -1.182345|    1.217037|    1.310637|    4.272966|    1.777141|    0.210768|
|          82|           0|   -1.196922|    1.198759|    1.296476|    4.260603|    1.676386|    0.177121|
|          83|           0|   -1.212202|    1.188786|    1.287393|    4.246515|    1.579996|    0.145632|
|          84|           0|   -1.228078|    1.187960|    1.282971|    4.230811|    1.489052|    0.116608|
|          85|           0|   -1.244615|    1.195092|    1.282172|    4.213320|    1.404486|    0.090299|
|          86|           0|   -1.261395|    1.208274|    1.283743|    4.194439|    1.327089|    0.066897|
|          87|           0|   -1.278596|    1.224431|    1.286518|    4.173973|    1.257493|    0.046535|
|          88|           0|   -1.295751|    1.240843|    1.289628|    4.152382|    1.196184|    0.029292|
|          89|           0|   -1.312070|    1.257381|    1.292281|    4.130739|    1.143511|    0.015196|
|          90|           0|   -1.327139|    1.272199|    1.294068|    4.109834|    1.099691|    0.004228|
+-----------------------------------------------------------------------+
|        File Writing Summary       |              Filename             |
+-----------------------------------------------------------------------+
|SU2 restart                        |solution_flow.dat                  |
|Paraview                           |flow.vtu                           |
|Paraview surface                   |surface_flow.vtu                   |
+-----------------------------------------------------------------------+

Writing the forces breakdown file (forces_breakdown.dat).
+-------------------------------------------------------------------------------------------------------+
|  Inner_Iter|   Time_Iter|    rms[Rho]|   rms[RhoU]|   rms[RhoV]|   rms[RhoE]|          CL|          CD|
+-------------------------------------------------------------------------------------------------------+
|          91|           0|   -1.340661|    1.284713|    1.294493|    4.090127|    1.064823|   -0.003672|
|          92|           0|   -1.352345|    1.294396|    1.293423|    4.072141|    1.038889|   -0.008600|
|          93|           0|   -1.362185|    1.301514|    1.290853|    4.056354|    1.021771|   -0.010684|
|          94|           0|   -1.370417|    1.306490|    1.286847|    4.042987|    1.013244|   -0.010080|
|          95|           0|   -1.377637|    1.308700|    1.281563|    4.031560|    1.013001|   -0.006974|
|          96|           0|   -1.384873|    1.308150|    1.274963|    4.021128|    1.020646|   -0.001569|
|          97|           0|   -1.392500|    1.305733|    1.267045|    4.011380|    1.035746|    0.005925|
|          98|           0|   -1.400730|    1.301497|    1.258184|    4.001980|    1.057794|    0.015283|
|          99|           0|   -1.409729|    1.295077|    1.248016|    3.992734|    1.086257|    0.026279|
|         100|           0|   -1.419743|    1.286832|    1.236690|    3.983406|    1.120589|    0.038688|
+-----------------------------------------------------------------------+
|        File Writing Summary       |              Filename             |
+-----------------------------------------------------------------------+
|SU2 restart                        |solution_flow.dat                  |
|Paraview                           |flow.vtu                           |
|Paraview surface                   |surface_flow.vtu                   |
+-----------------------------------------------------------------------+

Writing the forces breakdown file (forces_breakdown.dat).
+-------------------------------------------------------------------------------------------------------+
|  Inner_Iter|   Time_Iter|    rms[Rho]|   rms[RhoU]|   rms[RhoV]|   rms[RhoE]|          CL|          CD|
+-------------------------------------------------------------------------------------------------------+
|         101|           0|   -1.430545|    1.276591|    1.224390|    3.974253|    1.160169|    0.052277|
|         102|           0|   -1.441347|    1.264199|    1.211358|    3.966209|    1.204375|    0.066820|
|         103|           0|   -1.452203|    1.250030|    1.197927|    3.959073|    1.252551|    0.082091|
|         104|           0|   -1.463703|    1.234634|    1.184130|    3.951949|    1.304032|    0.097871|
|         105|           0|   -1.475063|    1.217306|    1.169995|    3.945594|    1.358149|    0.113949|
|         106|           0|   -1.486318|    1.198122|    1.155642|    3.939857|    1.414227|    0.130123|
|         107|           0|   -1.497473|    1.177978|    1.141147|    3.934401|    1.471606|    0.146204|
|         108|           0|   -1.508670|    1.157532|    1.126723|    3.928961|    1.529625|    0.162009|
|         109|           0|   -1.519756|    1.137357|    1.112447|    3.923535|    1.587641|    0.177372|
|         110|           0|   -1.530924|    1.118176|    1.098598|    3.917633|    1.645050|    0.192140|
+-----------------------------------------------------------------------+
|        File Writing Summary       |              Filename             |
+-----------------------------------------------------------------------+
|SU2 restart                        |solution_flow.dat                  |
|Paraview                           |flow.vtu                           |
|Paraview surface                   |surface_flow.vtu                   |
+-----------------------------------------------------------------------+

Writing the forces breakdown file (forces_breakdown.dat).
+-------------------------------------------------------------------------------------------------------+
|  Inner_Iter|   Time_Iter|    rms[Rho]|   rms[RhoU]|   rms[RhoV]|   rms[RhoE]|          CL|          CD|
+-------------------------------------------------------------------------------------------------------+
|         111|           0|   -1.541892|    1.100768|    1.085510|    3.911293|    1.701254|    0.206173|
|         112|           0|   -1.553126|    1.085639|    1.073756|    3.903923|    1.755696|    0.219346|
|         113|           0|   -1.563627|    1.073603|    1.063724|    3.896453|    1.807840|    0.231549|
|         114|           0|   -1.573104|    1.065153|    1.055704|    3.889033|    1.857195|    0.242685|
|         115|           0|   -1.581827|    1.060672|    1.050001|    3.881258|    1.903308|    0.252672|
|         116|           0|   -1.589751|    1.060075|    1.046654|    3.873158|    1.945779|    0.261448|
|         117|           0|   -1.596682|    1.062779|    1.045497|    3.864895|    1.984263|    0.268966|
|         118|           0|   -1.602949|    1.068554|    1.046404|    3.856147|    2.018459|    0.275193|
|         119|           0|   -1.608447|    1.076882|    1.048968|    3.847203|    2.048106|    0.280106|
|         120|           0|   -1.613684|    1.086740|    1.052755|    3.837659|    2.073017|    0.283700|
+-----------------------------------------------------------------------+
|        File Writing Summary       |              Filename             |
+-----------------------------------------------------------------------+
|SU2 restart                        |solution_flow.dat                  |
|Paraview                           |flow.vtu                           |
|Paraview surface                   |surface_flow.vtu                   |
+-----------------------------------------------------------------------+

Writing the forces breakdown file (forces_breakdown.dat).
+-------------------------------------------------------------------------------------------------------+
|  Inner_Iter|   Time_Iter|    rms[Rho]|   rms[RhoU]|   rms[RhoV]|   rms[RhoE]|          CL|          CD|
+-------------------------------------------------------------------------------------------------------+
|         121|           0|   -1.618385|    1.097032|    1.057328|    3.827864|    2.093051|    0.285984|
|         122|           0|   -1.623472|    1.107049|    1.062193|    3.817122|    2.108114|    0.286975|
|         123|           0|   -1.628751|    1.116515|    1.066941|    3.805882|    2.118162|    0.286703|
|         124|           0|   -1.634187|    1.125075|    1.071128|    3.794486|    2.123223|    0.285214|
|         125|           0|   -1.640073|    1.132440|    1.074292|    3.782932|    2.123364|    0.282560|
|         126|           0|   -1.645553|    1.136836|    1.076122|    3.771876|    2.118724|    0.278810|
|         127|           0|   -1.650649|    1.139018|    1.076256|    3.761844|    2.109517|    0.274049|
|         128|           0|   -1.655059|    1.138778|    1.074290|    3.753497|    2.095981|    0.268367|
|         129|           0|   -1.658442|    1.136307|    1.069972|    3.747655|    2.078398|    0.261859|
|         130|           0|   -1.660821|    1.131294|    1.062942|    3.744494|    2.057107|    0.254633|
+-----------------------------------------------------------------------+
|        File Writing Summary       |              Filename             |
+-----------------------------------------------------------------------+
|SU2 restart                        |solution_flow.dat                  |
|Paraview                           |flow.vtu                           |
|Paraview surface                   |surface_flow.vtu                   |
+-----------------------------------------------------------------------+

Writing the forces breakdown file (forces_breakdown.dat).
+-------------------------------------------------------------------------------------------------------+
|  Inner_Iter|   Time_Iter|    rms[Rho]|   rms[RhoU]|   rms[RhoV]|   rms[RhoE]|          CL|          CD|
+-------------------------------------------------------------------------------------------------------+
|         131|           0|   -1.661889|    1.123637|    1.053118|    3.744398|    2.032479|    0.246799|
|         132|           0|   -1.661986|    1.113495|    1.040395|    3.746901|    2.004912|    0.238471|
|         133|           0|   -1.661174|    1.100968|    1.024509|    3.751749|    1.974832|    0.229768|
|         134|           0|   -1.659969|    1.086153|    1.005409|    3.758012|    1.942678|    0.220811|
|         135|           0|   -1.658240|    1.070106|    0.983323|    3.765779|    1.908909|    0.211716|
|         136|           0|   -1.656871|    1.051797|    0.957717|    3.773321|    1.873988|    0.202603|
|         137|           0|   -1.655933|    1.031626|    0.928969|    3.780547|    1.838385|    0.193586|
|         138|           0|   -1.655436|    1.010345|    0.897452|    3.787250|    1.802571|    0.184774|
|         139|           0|   -1.655306|    0.989019|    0.863830|    3.793343|    1.767010|    0.176272|
|         140|           0|   -1.656377|    0.968497|    0.829220|    3.797729|    1.732151|    0.168178|
+-----------------------------------------------------------------------+
|        File Writing Summary       |              Filename             |
+-----------------------------------------------------------------------+
|SU2 restart                        |solution_flow.dat                  |
|Paraview                           |flow.vtu                           |
|Paraview surface                   |surface_flow.vtu                   |
+-----------------------------------------------------------------------+

Writing the forces breakdown file (forces_breakdown.dat).
+-------------------------------------------------------------------------------------------------------+
|  Inner_Iter|   Time_Iter|    rms[Rho]|   rms[RhoU]|   rms[RhoV]|   rms[RhoE]|          CL|          CD|
+-------------------------------------------------------------------------------------------------------+
|         141|           0|   -1.658861|    0.949915|    0.795377|    3.799869|    1.698415|    0.160577|
|         142|           0|   -1.662569|    0.934877|    0.764762|    3.799988|    1.666193|    0.153546|
|         143|           0|   -1.667343|    0.924220|    0.740442|    3.798230|    1.635863|    0.147156|
|         144|           0|   -1.673575|    0.918598|    0.725330|    3.794153|    1.607755|    0.141463|
|         145|           0|   -1.680773|    0.917959|    0.721113|    3.788182|    1.582184|    0.136516|
|         146|           0|   -1.688984|    0.921297|    0.727441|    3.779947|    1.559413|    0.132351|
|         147|           0|   -1.697910|    0.928219|    0.742211|    3.769867|    1.539682|    0.128995|
|         148|           0|   -1.707213|    0.937720|    0.762375|    3.758190|    1.523177|    0.126460|
|         149|           0|   -1.716545|    0.948506|    0.785145|    3.745083|    1.510022|    0.124741|
|         150|           0|   -1.725623|    0.959364|    0.808332|    3.730733|    1.500286|    0.123819|
+-----------------------------------------------------------------------+
|        File Writing Summary       |              Filename             |
+-----------------------------------------------------------------------+
|SU2 restart                        |solution_flow.dat                  |
|Paraview                           |flow.vtu                           |
|Paraview surface                   |surface_flow.vtu                   |
+-----------------------------------------------------------------------+

Writing the forces breakdown file (forces_breakdown.dat).
+-------------------------------------------------------------------------------------------------------+
|  Inner_Iter|   Time_Iter|    rms[Rho]|   rms[RhoU]|   rms[RhoV]|   rms[RhoE]|          CL|          CD|
+-------------------------------------------------------------------------------------------------------+
|         151|           0|   -1.733841|    0.969923|    0.830431|    3.715859|    1.494009|    0.123671|
|         152|           0|   -1.740702|    0.979525|    0.850332|    3.701145|    1.491187|    0.124262|
|         153|           0|   -1.745545|    0.987870|    0.867623|    3.687680|    1.491752|    0.125545|
|         154|           0|   -1.748577|    0.994464|    0.881897|    3.675766|    1.495624|    0.127471|
|         155|           0|   -1.749797|    0.998900|    0.893022|    3.666022|    1.502675|    0.129982|
|         156|           0|   -1.749405|    1.001257|    0.900901|    3.658944|    1.512742|    0.133016|
|         157|           0|   -1.747688|    1.001546|    0.905600|    3.654728|    1.525627|    0.136505|
|         158|           0|   -1.745533|    0.999289|    0.907239|    3.652582|    1.541101|    0.140378|
|         159|           0|   -1.743259|    0.994568|    0.905901|    3.652431|    1.558912|    0.144561|
|         160|           0|   -1.740796|    0.987616|    0.901620|    3.654440|    1.578796|    0.148979|
+-----------------------------------------------------------------------+
|        File Writing Summary       |              Filename             |
+-----------------------------------------------------------------------+
|SU2 restart                        |solution_flow.dat                  |
|Paraview                           |flow.vtu                           |
|Paraview surface                   |surface_flow.vtu                   |
+-----------------------------------------------------------------------+

Writing the forces breakdown file (forces_breakdown.dat).
+-------------------------------------------------------------------------------------------------------+
|  Inner_Iter|   Time_Iter|    rms[Rho]|   rms[RhoU]|   rms[RhoV]|   rms[RhoE]|          CL|          CD|
+-------------------------------------------------------------------------------------------------------+
|         161|           0|   -1.738711|    0.978389|    0.894331|    3.657729|    1.600463|    0.153560|
|         162|           0|   -1.737449|    0.967100|    0.884032|    3.661499|    1.623615|    0.158229|
|         163|           0|   -1.736922|    0.953692|    0.870936|    3.665663|    1.647936|    0.162914|
|         164|           0|   -1.737313|    0.937911|    0.855501|    3.669804|    1.673113|    0.167548|
|         165|           0|   -1.739028|    0.920083|    0.837530|    3.673228|    1.698820|    0.172065|
|         166|           0|   -1.742114|    0.900327|    0.817114|    3.675645|    1.724739|    0.176406|
|         167|           0|   -1.746399|    0.879029|    0.794414|    3.677030|    1.750551|    0.180510|
|         168|           0|   -1.751753|    0.856514|    0.769712|    3.677462|    1.775952|    0.184326|
|         169|           0|   -1.758013|    0.833522|    0.743634|    3.676989|    1.800639|    0.187807|
|         170|           0|   -1.765008|    0.810677|    0.717016|    3.675584|    1.824339|    0.190916|
+-----------------------------------------------------------------------+
|        File Writing Summary       |              Filename             |
+-----------------------------------------------------------------------+
|SU2 restart                        |solution_flow.dat                  |
|Paraview                           |flow.vtu                           |
|Paraview surface                   |surface_flow.vtu                   |
+-----------------------------------------------------------------------+

Writing the forces breakdown file (forces_breakdown.dat).
+-------------------------------------------------------------------------------------------------------+
|  Inner_Iter|   Time_Iter|    rms[Rho]|   rms[RhoU]|   rms[RhoV]|   rms[RhoE]|          CL|          CD|
+-------------------------------------------------------------------------------------------------------+
|         171|           0|   -1.772557|    0.788696|    0.690946|    3.673299|    1.846798|    0.193622|
|         172|           0|   -1.780451|    0.768766|    0.666667|    3.670199|    1.867789|    0.195902|
|         173|           0|   -1.788442|    0.752426|    0.645694|    3.666347|    1.887085|    0.197733|
|         174|           0|   -1.796545|    0.740725|    0.629675|    3.661532|    1.904486|    0.199099|
|         175|           0|   -1.804877|    0.734456|    0.619949|    3.655488|    1.919826|    0.199994|
|         176|           0|   -1.813394|    0.733689|    0.617109|    3.648068|    1.932954|    0.200413|
|         177|           0|   -1.821663|    0.737978|    0.621011|    3.639681|    1.943749|    0.200361|
|         178|           0|   -1.829383|    0.746556|    0.630536|    3.630614|    1.952139|    0.199848|
|         179|           0|   -1.836725|    0.758048|    0.644092|    3.620618|    1.958081|    0.198895|
|         180|           0|   -1.843196|    0.771531|    0.660081|    3.610302|    1.961558|    0.197525|
+-----------------------------------------------------------------------+
|        File Writing Summary       |              Filename             |
+-----------------------------------------------------------------------+
|SU2 restart                        |solution_flow.dat                  |
|Paraview                           |flow.vtu                           |
|Paraview surface                   |surface_flow.vtu                   |
+-----------------------------------------------------------------------+

Writing the forces breakdown file (forces_breakdown.dat).
+-------------------------------------------------------------------------------------------------------+
|  Inner_Iter|   Time_Iter|    rms[Rho]|   rms[RhoU]|   rms[RhoV]|   rms[RhoE]|          CL|          CD|
+-------------------------------------------------------------------------------------------------------+
|         181|           0|   -1.849106|    0.785292|    0.677068|    3.599388|    1.962600|    0.195770|
|         182|           0|   -1.854413|    0.798876|    0.693843|    3.588158|    1.961250|    0.193660|
|         183|           0|   -1.859205|    0.811391|    0.709602|    3.576636|    1.957588|    0.191237|
|         184|           0|   -1.864175|    0.822159|    0.723767|    3.564275|    1.951718|    0.188539|
|         185|           0|   -1.868657|    0.831228|    0.735705|    3.552227|    1.943766|    0.185610|
|         186|           0|   -1.872259|    0.838034|    0.745236|    3.541240|    1.933889|    0.182498|
|         187|           0|   -1.875021|    0.842533|    0.752115|    3.531842|    1.922267|    0.179250|
|         188|           0|   -1.877118|    0.844573|    0.756303|    3.524227|    1.909084|    0.175913|
|         189|           0|   -1.878719|    0.843853|    0.757592|    3.518466|    1.894547|    0.172536|
|         190|           0|   -1.879755|    0.840383|    0.756039|    3.514904|    1.878876|    0.169167|
+-----------------------------------------------------------------------+
|        File Writing Summary       |              Filename             |
+-----------------------------------------------------------------------+
|SU2 restart                        |solution_flow.dat                  |
|Paraview                           |flow.vtu                           |
|Paraview surface                   |surface_flow.vtu                   |
+-----------------------------------------------------------------------+

Writing the forces breakdown file (forces_breakdown.dat).
+-------------------------------------------------------------------------------------------------------+
|  Inner_Iter|   Time_Iter|    rms[Rho]|   rms[RhoU]|   rms[RhoV]|   rms[RhoE]|          CL|          CD|
+-------------------------------------------------------------------------------------------------------+
|         191|           0|   -1.880553|    0.834026|    0.751535|    3.513236|    1.862300|    0.165851|
|         192|           0|   -1.881412|    0.825081|    0.744155|    3.513184|    1.845045|    0.162634|
|         193|           0|   -1.882405|    0.813397|    0.733582|    3.514452|    1.827360|    0.159561|
|         194|           0|   -1.883741|    0.798888|    0.720048|    3.516627|    1.809466|    0.156670|
|         195|           0|   -1.885629|    0.781486|    0.703523|    3.519216|    1.791598|    0.153999|
|         196|           0|   -1.888296|    0.761194|    0.684114|    3.521743|    1.773981|    0.151580|
|         197|           0|   -1.891239|    0.738233|    0.661935|    3.524656|    1.756826|    0.149438|
|         198|           0|   -1.894758|    0.712926|    0.637165|    3.527324|    1.740325|    0.147593|
|         199|           0|   -1.898927|    0.685601|    0.610262|    3.529452|    1.724665|    0.146062|
|         200|           0|   -1.903920|    0.656676|    0.581871|    3.530550|    1.710015|    0.144856|
+-----------------------------------------------------------------------+
|        File Writing Summary       |              Filename             |
+-----------------------------------------------------------------------+
|SU2 restart                        |solution_flow.dat                  |
|Paraview                           |flow.vtu                           |
|Paraview surface                   |surface_flow.vtu                   |
+-----------------------------------------------------------------------+

Writing the forces breakdown file (forces_breakdown.dat).
+-------------------------------------------------------------------------------------------------------+
|  Inner_Iter|   Time_Iter|    rms[Rho]|   rms[RhoU]|   rms[RhoV]|   rms[RhoE]|          CL|          CD|
+-------------------------------------------------------------------------------------------------------+
|         201|           0|   -1.909588|    0.626931|    0.553051|    3.530645|    1.696523|    0.143984|
|         202|           0|   -1.915854|    0.597339|    0.525273|    3.529620|    1.684331|    0.143450|
|         203|           0|   -1.922663|    0.570035|    0.500221|    3.527457|    1.673565|    0.143254|
|         204|           0|   -1.930311|    0.546899|    0.479991|    3.523681|    1.664336|    0.143393|
|         205|           0|   -1.938537|    0.529848|    0.466556|    3.518458|    1.656727|    0.143857|
|         206|           0|   -1.947223|    0.520237|    0.461261|    3.511826|    1.650812|    0.144636|
|         207|           0|   -1.955882|    0.518436|    0.464212|    3.504150|    1.646631|    0.145713|
|         208|           0|   -1.964435|    0.523950|    0.474170|    3.495386|    1.644211|    0.147069|
|         209|           0|   -1.973036|    0.535144|    0.489219|    3.485263|    1.643554|    0.148682|
|         210|           0|   -1.981377|    0.550335|    0.507302|    3.474110|    1.644647|    0.150527|
+-----------------------------------------------------------------------+
|        File Writing Summary       |              Filename             |
+-----------------------------------------------------------------------+
|SU2 restart                        |solution_flow.dat                  |
|Paraview                           |flow.vtu                           |
|Paraview surface                   |surface_flow.vtu                   |
+-----------------------------------------------------------------------+

Writing the forces breakdown file (forces_breakdown.dat).
+-------------------------------------------------------------------------------------------------------+
|  Inner_Iter|   Time_Iter|    rms[Rho]|   rms[RhoU]|   rms[RhoV]|   rms[RhoE]|          CL|          CD|
+-------------------------------------------------------------------------------------------------------+
|         211|           0|   -1.989293|    0.567437|    0.526475|    3.462167|    1.647456|    0.152575|
|         212|           0|   -1.997169|    0.583797|    0.545160|    3.449012|    1.651930|    0.154798|
|         213|           0|   -2.003817|    0.599577|    0.562469|    3.436095|    1.657995|    0.157163|
|         214|           0|   -2.009057|    0.613989|    0.577757|    3.423920|    1.665564|    0.159637|
|         215|           0|   -2.012945|    0.626418|    0.590623|    3.412848|    1.674530|    0.162186|
|         216|           0|   -2.015633|    0.636616|    0.600828|    3.403088|    1.684774|    0.164774|
|         217|           0|   -2.017407|    0.644421|    0.608276|    3.394750|    1.696166|    0.167367|
|         218|           0|   -2.018618|    0.649906|    0.612924|    3.387888|    1.708561|    0.169930|
|         219|           0|   -2.019328|    0.652858|    0.614689|    3.382751|    1.721802|    0.172430|
|         220|           0|   -2.019864|    0.653074|    0.613737|    3.379188|    1.735725|    0.174834|
+-----------------------------------------------------------------------+
|        File Writing Summary       |              Filename             |
+-----------------------------------------------------------------------+
|SU2 restart                        |solution_flow.dat                  |
|Paraview                           |flow.vtu                           |
|Paraview surface                   |surface_flow.vtu                   |
+-----------------------------------------------------------------------+

Writing the forces breakdown file (forces_breakdown.dat).
+-------------------------------------------------------------------------------------------------------+
|  Inner_Iter|   Time_Iter|    rms[Rho]|   rms[RhoU]|   rms[RhoV]|   rms[RhoE]|          CL|          CD|
+-------------------------------------------------------------------------------------------------------+
|         221|           0|   -2.020522|    0.650630|    0.610045|    3.376926|    1.750165|    0.177110|
|         222|           0|   -2.021272|    0.645395|    0.603586|    3.376014|    1.764950|    0.179230|
|         223|           0|   -2.022064|    0.637395|    0.594334|    3.376541|    1.779905|    0.181167|
|         224|           0|   -2.023119|    0.626590|    0.582099|    3.378155|    1.794854|    0.182897|
|         225|           0|   -2.024788|    0.613245|    0.567132|    3.380198|    1.809626|    0.184397|
|         226|           0|   -2.027264|    0.597606|    0.549549|    3.382228|    1.824050|    0.185649|
|         227|           0|   -2.030682|    0.579795|    0.529474|    3.383877|    1.837968|    0.186639|
|         228|           0|   -2.035000|    0.560013|    0.507097|    3.384958|    1.851226|    0.187355|
|         229|           0|   -2.040310|    0.538726|    0.482807|    3.385221|    1.863684|    0.187791|
|         230|           0|   -2.046554|    0.516530|    0.456932|    3.384578|    1.875200|    0.187939|
+-----------------------------------------------------------------------+
|        File Writing Summary       |              Filename             |
+-----------------------------------------------------------------------+
|SU2 restart                        |solution_flow.dat                  |
|Paraview                           |flow.vtu                           |
|Paraview surface                   |surface_flow.vtu                   |
+-----------------------------------------------------------------------+

Writing the forces breakdown file (forces_breakdown.dat).
+-------------------------------------------------------------------------------------------------------+
|  Inner_Iter|   Time_Iter|    rms[Rho]|   rms[RhoU]|   rms[RhoV]|   rms[RhoE]|          CL|          CD|
+-------------------------------------------------------------------------------------------------------+
|         231|           0|   -2.053781|    0.494274|    0.430213|    3.382797|    1.885660|    0.187800|
|         232|           0|   -2.061968|    0.473064|    0.403693|    3.379771|    1.894956|    0.187377|
|         233|           0|   -2.070896|    0.453799|    0.378786|    3.375584|    1.902997|    0.186676|
|         234|           0|   -2.080643|    0.437683|    0.357018|    3.369968|    1.909706|    0.185705|
|         235|           0|   -2.091085|    0.425842|    0.339960|    3.362991|    1.915030|    0.184479|
|         236|           0|   -2.101728|    0.419051|    0.328821|    3.355000|    1.918927|    0.183014|
|         237|           0|   -2.112534|    0.417689|    0.324288|    3.345902|    1.921384|    0.181330|
|         238|           0|   -2.123229|    0.421425|    0.326214|    3.335816|    1.922395|    0.179448|
|         239|           0|   -2.133413|    0.429575|    0.333715|    3.325109|    1.921980|    0.177395|
|         240|           0|   -2.143431|    0.441007|    0.345370|    3.313359|    1.920169|    0.175195|
+-----------------------------------------------------------------------+
|        File Writing Summary       |              Filename             |
+-----------------------------------------------------------------------+
|SU2 restart                        |solution_flow.dat                  |
|Paraview                           |flow.vtu                           |
|Paraview surface                   |surface_flow.vtu                   |
+-----------------------------------------------------------------------+

Writing the forces breakdown file (forces_breakdown.dat).
+-------------------------------------------------------------------------------------------------------+
|  Inner_Iter|   Time_Iter|    rms[Rho]|   rms[RhoU]|   rms[RhoV]|   rms[RhoE]|          CL|          CD|
+-------------------------------------------------------------------------------------------------------+
|         241|           0|   -2.152965|    0.454235|    0.359570|    3.300826|    1.917019|    0.172877|
|         242|           0|   -2.161846|    0.467959|    0.374905|    3.287721|    1.912588|    0.170468|
|         243|           0|   -2.169790|    0.481334|    0.390190|    3.274441|    1.906961|    0.168000|
|         244|           0|   -2.177144|    0.493554|    0.404562|    3.260718|    1.900227|    0.165502|
|         245|           0|   -2.183187|    0.504395|    0.417445|    3.247620|    1.892493|    0.163004|
|         246|           0|   -2.187880|    0.513477|    0.428375|    3.235538|    1.883870|    0.160536|
|         247|           0|   -2.191296|    0.520385|    0.437092|    3.224796|    1.874487|    0.158127|
|         248|           0|   -2.193805|    0.524955|    0.443370|    3.215423|    1.864474|    0.155807|
|         249|           0|   -2.195442|    0.527173|    0.447033|    3.207837|    1.853969|    0.153602|
|         250|           0|   -2.196616|    0.527105|    0.448041|    3.201923|    1.843110|    0.151537|
+-----------------------------------------------------------------------+
|        File Writing Summary       |              Filename             |
+-----------------------------------------------------------------------+
|SU2 restart                        |solution_flow.dat                  |
|Paraview                           |flow.vtu                           |
|Paraview surface                   |surface_flow.vtu                   |
+-----------------------------------------------------------------------+

Writing the forces breakdown file (forces_breakdown.dat).
+-------------------------------------------------------------------------------------------------------+
|  Inner_Iter|   Time_Iter|    rms[Rho]|   rms[RhoU]|   rms[RhoV]|   rms[RhoE]|          CL|          CD|
+-------------------------------------------------------------------------------------------------------+
|         251|           0|   -2.198078|    0.524664|    0.446320|    3.197137|    1.832041|    0.149637|
|         252|           0|   -2.199345|    0.519724|    0.441942|    3.194112|    1.820900|    0.147922|
|         253|           0|   -2.200295|    0.512240|    0.434852|    3.192958|    1.809828|    0.146411|
|         254|           0|   -2.201347|    0.502207|    0.425040|    3.193117|    1.798960|    0.145119|
|         255|           0|   -2.202790|    0.489619|    0.412524|    3.194095|    1.788427|    0.144061|
|         256|           0|   -2.204736|    0.474576|    0.397346|    3.195652|    1.778355|    0.143245|
|         257|           0|   -2.207260|    0.457096|    0.379555|    3.197513|    1.768861|    0.142680|
|         258|           0|   -2.210370|    0.437297|    0.359322|    3.199453|    1.760054|    0.142369|
|         259|           0|   -2.214285|    0.415404|    0.336697|    3.201012|    1.752035|    0.142315|
|         260|           0|   -2.219128|    0.391662|    0.311960|    3.201846|    1.744892|    0.142516|
+-----------------------------------------------------------------------+
|        File Writing Summary       |              Filename             |
+-----------------------------------------------------------------------+
|SU2 restart                        |solution_flow.dat                  |
|Paraview                           |flow.vtu                           |
|Paraview surface                   |surface_flow.vtu                   |
+-----------------------------------------------------------------------+

Writing the forces breakdown file (forces_breakdown.dat).
+-------------------------------------------------------------------------------------------------------+
|  Inner_Iter|   Time_Iter|    rms[Rho]|   rms[RhoU]|   rms[RhoV]|   rms[RhoE]|          CL|          CD|
+-------------------------------------------------------------------------------------------------------+
|         261|           0|   -2.224891|    0.366467|    0.285606|    3.201817|    1.738703|    0.142968|
|         262|           0|   -2.231562|    0.340340|    0.258195|    3.200793|    1.733530|    0.143662|
|         263|           0|   -2.239011|    0.313998|    0.230729|    3.198745|    1.729425|    0.144590|
|         264|           0|   -2.247218|    0.288478|    0.204433|    3.195562|    1.726427|    0.145738|
|         265|           0|   -2.256067|    0.265010|    0.180930|    3.191208|    1.724558|    0.147093|
|         266|           0|   -2.265511|    0.244917|    0.161875|    3.185618|    1.723830|    0.148635|
|         267|           0|   -2.275342|    0.229375|    0.148712|    3.178861|    1.724241|    0.150347|
|         268|           0|   -2.285870|    0.218621|    0.142346|    3.170430|    1.725774|    0.152206|
|         269|           0|   -2.296239|    0.213309|    0.142787|    3.161088|    1.728403|    0.154192|
|         270|           0|   -2.306074|    0.213372|    0.149159|    3.151135|    1.732084|    0.156280|
+-----------------------------------------------------------------------+
|        File Writing Summary       |              Filename             |
+-----------------------------------------------------------------------+
|SU2 restart                        |solution_flow.dat                  |
|Paraview                           |flow.vtu                           |
|Paraview surface                   |surface_flow.vtu                   |
+-----------------------------------------------------------------------+

Writing the forces breakdown file (forces_breakdown.dat).
+-------------------------------------------------------------------------------------------------------+
|  Inner_Iter|   Time_Iter|    rms[Rho]|   rms[RhoU]|   rms[RhoV]|   rms[RhoE]|          CL|          CD|
+-------------------------------------------------------------------------------------------------------+
|         271|           0|   -2.315482|    0.218151|    0.160019|    3.140403|    1.736769|    0.158448|
|         272|           0|   -2.323942|    0.226729|    0.173914|    3.129452|    1.742395|    0.160669|
|         273|           0|   -2.331359|    0.237733|    0.189315|    3.118388|    1.748889|    0.162918|
|         274|           0|   -2.337624|    0.250072|    0.204986|    3.107496|    1.756170|    0.165171|
|         275|           0|   -2.342668|    0.262625|    0.219943|    3.097113|    1.764150|    0.167401|
|         276|           0|   -2.346648|    0.274366|    0.233605|    3.087225|    1.772731|    0.169585|
|         277|           0|   -2.349798|    0.284529|    0.245388|    3.077898|    1.781812|    0.171697|
|         278|           0|   -2.352044|    0.292873|    0.254929|    3.069580|    1.791287|    0.173716|
|         279|           0|   -2.353491|    0.299321|    0.262216|    3.062488|    1.801047|    0.175619|
|         280|           0|   -2.354357|    0.303715|    0.267079|    3.056716|    1.810980|    0.177385|
+-----------------------------------------------------------------------+
|        File Writing Summary       |              Filename             |
+-----------------------------------------------------------------------+
|SU2 restart                        |solution_flow.dat                  |
|Paraview                           |flow.vtu                           |
|Paraview surface                   |surface_flow.vtu                   |
+-----------------------------------------------------------------------+

Writing the forces breakdown file (forces_breakdown.dat).
+-------------------------------------------------------------------------------------------------------+
|  Inner_Iter|   Time_Iter|    rms[Rho]|   rms[RhoU]|   rms[RhoV]|   rms[RhoE]|          CL|          CD|
+-------------------------------------------------------------------------------------------------------+
|         281|           0|   -2.354922|    0.305960|    0.269527|    3.052195|    1.820973|    0.178996|
|         282|           0|   -2.355394|    0.305883|    0.269543|    3.048838|    1.830917|    0.180434|
|         283|           0|   -2.355916|    0.303568|    0.267138|    3.046612|    1.840705|    0.181685|
|         284|           0|   -2.356790|    0.299083|    0.262331|    3.045193|    1.850230|    0.182737|
|         285|           0|   -2.358081|    0.292316|    0.255220|    3.044455|    1.859393|    0.183578|
|         286|           0|   -2.360060|    0.283409|    0.245865|    3.043985|    1.868099|    0.184201|
|         287|           0|   -2.362807|    0.272434|    0.234312|    3.043607|    1.876261|    0.184602|
|         288|           0|   -2.366441|    0.259524|    0.220739|    3.043096|    1.883799|    0.184777|
|         289|           0|   -2.370959|    0.244942|    0.205268|    3.042381|    1.890641|    0.184727|
|         290|           0|   -2.376448|    0.229039|    0.188231|    3.041159|    1.896721|    0.184453|
+-----------------------------------------------------------------------+
|        File Writing Summary       |              Filename             |
+-----------------------------------------------------------------------+
|SU2 restart                        |solution_flow.dat                  |
|Paraview                           |flow.vtu                           |
|Paraview surface                   |surface_flow.vtu                   |
+-----------------------------------------------------------------------+

Writing the forces breakdown file (forces_breakdown.dat).
+-------------------------------------------------------------------------------------------------------+
|  Inner_Iter|   Time_Iter|    rms[Rho]|   rms[RhoU]|   rms[RhoV]|   rms[RhoE]|          CL|          CD|
+-------------------------------------------------------------------------------------------------------+
|         291|           0|   -2.382891|    0.212208|    0.169992|    3.039303|    1.901986|    0.183959|
|         292|           0|   -2.390315|    0.194843|    0.150918|    3.036643|    1.906397|    0.183256|
|         293|           0|   -2.398689|    0.177530|    0.131610|    3.033078|    1.909920|    0.182350|
|         294|           0|   -2.407869|    0.160944|    0.112780|    3.028628|    1.912536|    0.181256|
|         295|           0|   -2.417900|    0.145908|    0.095245|    3.023107|    1.914236|    0.179987|
|         296|           0|   -2.428693|    0.133040|    0.079838|    3.016483|    1.915024|    0.178559|
|         297|           0|   -2.439951|    0.123063|    0.067296|    3.008929|    1.914909|    0.176989|
|         298|           0|   -2.451471|    0.116340|    0.058230|    3.000504|    1.913914|    0.175298|
|         299|           0|   -2.463186|    0.113039|    0.052954|    2.991113|    1.912071|    0.173504|
|         300|           0|   -2.475050|    0.112845|    0.051462|    2.980575|    1.909422|    0.171630|
+-----------------------------------------------------------------------+
|        File Writing Summary       |              Filename             |
+-----------------------------------------------------------------------+
|SU2 restart                        |solution_flow.dat                  |
|Paraview                           |flow.vtu                           |
|Paraview surface                   |surface_flow.vtu                   |
+-----------------------------------------------------------------------+

Writing the forces breakdown file (forces_breakdown.dat).
+-------------------------------------------------------------------------------------------------------+
|  Inner_Iter|   Time_Iter|    rms[Rho]|   rms[RhoU]|   rms[RhoV]|   rms[RhoE]|          CL|          CD|
+-------------------------------------------------------------------------------------------------------+
|         301|           0|   -2.486744|    0.115625|    0.053415|    2.969228|    1.906015|    0.169695|
|         302|           0|   -2.497968|    0.120883|    0.058131|    2.957283|    1.901911|    0.167724|
|         303|           0|   -2.508515|    0.127894|    0.064849|    2.944898|    1.897176|    0.165738|
|         304|           0|   -2.518284|    0.135995|    0.072786|    2.932182|    1.891883|    0.163761|
|         305|           0|   -2.526923|    0.144535|    0.081202|    2.919580|    1.886109|    0.161815|
|         306|           0|   -2.534435|    0.152883|    0.089458|    2.907165|    1.879936|    0.159920|
|         307|           0|   -2.540982|    0.160555|    0.097007|    2.894956|    1.873447|    0.158099|
|         308|           0|   -2.546520|    0.167123|    0.103481|    2.883219|    1.866731|    0.156371|
|         309|           0|   -2.551014|    0.172367|    0.108609|    2.872377|    1.859875|    0.154753|
|         310|           0|   -2.554545|    0.176065|    0.112128|    2.862675|    1.852970|    0.153264|
+-----------------------------------------------------------------------+
|        File Writing Summary       |              Filename             |
+-----------------------------------------------------------------------+
|SU2 restart                        |solution_flow.dat                  |
|Paraview                           |flow.vtu                           |
|Paraview surface                   |surface_flow.vtu                   |
+-----------------------------------------------------------------------+

Writing the forces breakdown file (forces_breakdown.dat).
+-------------------------------------------------------------------------------------------------------+
|  Inner_Iter|   Time_Iter|    rms[Rho]|   rms[RhoU]|   rms[RhoV]|   rms[RhoE]|          CL|          CD|
+-------------------------------------------------------------------------------------------------------+
|         311|           0|   -2.557297|    0.178016|    0.113875|    2.854225|    1.846101|    0.151919|
|         312|           0|   -2.559508|    0.178134|    0.113651|    2.847062|    1.839354|    0.150731|
|         313|           0|   -2.561429|    0.176308|    0.111392|    2.841130|    1.832811|    0.149711|
|         314|           0|   -2.563277|    0.172563|    0.107072|    2.836365|    1.826549|    0.148870|
|         315|           0|   -2.565228|    0.166808|    0.100693|    2.832668|    1.820642|    0.148214|
|         316|           0|   -2.567482|    0.159009|    0.092236|    2.829851|    1.815156|    0.147748|
|         317|           0|   -2.570167|    0.149213|    0.081685|    2.827753|    1.810154|    0.147477|
|         318|           0|   -2.573382|    0.137423|    0.069118|    2.826199|    1.805688|    0.147399|
|         319|           0|   -2.577204|    0.123654|    0.054591|    2.824967|    1.801806|    0.147513|
|         320|           0|   -2.581652|    0.108022|    0.038219|    2.823917|    1.798546|    0.147816|
+-----------------------------------------------------------------------+
|        File Writing Summary       |              Filename             |
+-----------------------------------------------------------------------+
|SU2 restart                        |solution_flow.dat                  |
|Paraview                           |flow.vtu                           |
|Paraview surface                   |surface_flow.vtu                   |
+-----------------------------------------------------------------------+

Writing the forces breakdown file (forces_breakdown.dat).
+-------------------------------------------------------------------------------------------------------+
|  Inner_Iter|   Time_Iter|    rms[Rho]|   rms[RhoU]|   rms[RhoV]|   rms[RhoE]|          CL|          CD|
+-------------------------------------------------------------------------------------------------------+
|         321|           0|   -2.586784|    0.090598|    0.020102|    2.822825|    1.795939|    0.148302|
|         322|           0|   -2.592629|    0.071587|    0.000475|    2.821507|    1.794008|    0.148962|
|         323|           0|   -2.599159|    0.051225|   -0.020280|    2.819844|    1.792767|    0.149787|
|         324|           0|   -2.606380|    0.029770|   -0.041710|    2.817637|    1.792223|    0.150766|
|         325|           0|   -2.614375|    0.007657|   -0.063229|    2.814652|    1.792374|    0.151885|
|         326|           0|   -2.623112|   -0.014643|   -0.084144|    2.810785|    1.793209|    0.153132|
|         327|           0|   -2.632480|   -0.036556|   -0.103647|    2.806015|    1.794712|    0.154490|
|         328|           0|   -2.642304|   -0.057445|   -0.120860|    2.800385|    1.796857|    0.155943|
|         329|           0|   -2.652434|   -0.076589|   -0.134963|    2.793886|    1.799613|    0.157476|
|         330|           0|   -2.662646|   -0.093281|   -0.145281|    2.786609|    1.802943|    0.159068|
+-----------------------------------------------------------------------+
|        File Writing Summary       |              Filename             |
+-----------------------------------------------------------------------+
|SU2 restart                        |solution_flow.dat                  |
|Paraview                           |flow.vtu                           |
|Paraview surface                   |surface_flow.vtu                   |
+-----------------------------------------------------------------------+

Writing the forces breakdown file (forces_breakdown.dat).
+-------------------------------------------------------------------------------------------------------+
|  Inner_Iter|   Time_Iter|    rms[Rho]|   rms[RhoU]|   rms[RhoV]|   rms[RhoE]|          CL|          CD|
+-------------------------------------------------------------------------------------------------------+
|         331|           0|   -2.672759|   -0.106886|   -0.151434|    2.778635|    1.806801|    0.160704|
|         332|           0|   -2.682577|   -0.117016|   -0.153434|    2.770079|    1.811141|    0.162364|
|         333|           0|   -2.691873|   -0.123545|   -0.151624|    2.761066|    1.815908|    0.164031|
|         334|           0|   -2.700425|   -0.126657|   -0.146670|    2.751795|    1.821047|    0.165685|
|         335|           0|   -2.708208|   -0.126555|   -0.139383|    2.742324|    1.826497|    0.167311|
|         336|           0|   -2.715172|   -0.123791|   -0.130622|    2.732749|    1.832195|    0.168889|
|         337|           0|   -2.721115|   -0.119080|   -0.121158|    2.723388|    1.838080|    0.170406|
|         338|           0|   -2.726090|   -0.113233|   -0.111719|    2.714345|    1.844086|    0.171845|
|         339|           0|   -2.730355|   -0.107036|   -0.102862|    2.705508|    1.850148|    0.173192|
|         340|           0|   -2.733890|   -0.101059|   -0.094952|    2.697135|    1.856203|    0.174435|
+-----------------------------------------------------------------------+
|        File Writing Summary       |              Filename             |
+-----------------------------------------------------------------------+
|SU2 restart                        |solution_flow.dat                  |
|Paraview                           |flow.vtu                           |
|Paraview surface                   |surface_flow.vtu                   |
+-----------------------------------------------------------------------+

Writing the forces breakdown file (forces_breakdown.dat).
+-------------------------------------------------------------------------------------------------------+
|  Inner_Iter|   Time_Iter|    rms[Rho]|   rms[RhoU]|   rms[RhoV]|   rms[RhoE]|          CL|          CD|
+-------------------------------------------------------------------------------------------------------+
|         341|           0|   -2.736791|   -0.095707|   -0.088259|    2.689358|    1.862188|    0.175561|
|         342|           0|   -2.739235|   -0.091302|   -0.082980|    2.682233|    1.868045|    0.176561|
|         343|           0|   -2.741413|   -0.088070|   -0.079227|    2.675783|    1.873712|    0.177426|
|         344|           0|   -2.743438|   -0.086207|   -0.077048|    2.670095|    1.879138|    0.178148|
|         345|           0|   -2.745516|   -0.085808|   -0.076482|    2.665084|    1.884269|    0.178723|
|         346|           0|   -2.747906|   -0.086876|   -0.077477|    2.660551|    1.889061|    0.179147|
|         347|           0|   -2.750801|   -0.089406|   -0.080023|    2.656353|    1.893471|    0.179418|
|         348|           0|   -2.754290|   -0.093400|   -0.084042|    2.652413|    1.897464|    0.179536|
|         349|           0|   -2.758424|   -0.098824|   -0.089421|    2.648663|    1.901008|    0.179501|
|         350|           0|   -2.763302|   -0.105573|   -0.096027|    2.644960|    1.904081|    0.179318|
+-----------------------------------------------------------------------+
[...]
|         905|           0|   -4.407946|   -1.560342|   -1.784329|    1.014331|    1.939390|    0.168638|
|         906|           0|   -4.352740|   -1.737208|   -1.795555|    1.083882|    1.939401|    0.168640|
|         907|           0|   -4.290010|   -1.785616|   -1.779724|    1.180949|    1.939410|    0.168642|
|         908|           0|   -4.222317|   -1.561494|   -1.742299|    1.283288|    1.939422|    0.168645|
|         909|           0|   -4.146108|   -1.325577|   -1.685682|    1.389695|    1.939433|    0.168648|
|         910|           0|   -4.063567|   -1.130371|   -1.610331|    1.496671|    1.939445|    0.168651|
+-----------------------------------------------------------------------+
|        File Writing Summary       |              Filename             |
+-----------------------------------------------------------------------+
|SU2 restart                        |solution_flow.dat                  |
|Paraview                           |flow.vtu                           |
|Paraview surface                   |surface_flow.vtu                   |
+-----------------------------------------------------------------------+

Writing the forces breakdown file (forces_breakdown.dat).
+-------------------------------------------------------------------------------------------------------+
|  Inner_Iter|   Time_Iter|    rms[Rho]|   rms[RhoU]|   rms[RhoV]|   rms[RhoE]|          CL|          CD|
+-------------------------------------------------------------------------------------------------------+
|         911|           0|   -4.217033|   -1.197555|   -1.642585|    1.358189|    1.939458|    0.168654|
|         912|           0|   -4.378044|   -1.303042|   -1.692843|    1.187253|    1.939473|    0.168657|
|         913|           0|   -4.450434|   -1.405292|   -1.734862|    1.060625|    1.939486|    0.168661|
|         914|           0|   -4.454771|   -1.501998|   -1.766825|    1.001302|    1.939502|    0.168664|
|         915|           0|   -4.449466|   -1.590987|   -1.790257|    0.981125|    1.939517|    0.168668|
|         916|           0|   -4.459298|   -1.668808|   -1.806842|    0.963859|    1.939535|    0.168672|
|         917|           0|   -4.486654|   -1.730980|   -1.818018|    0.936252|    1.939550|    0.168675|
|         918|           0|   -4.528048|   -1.775420|   -1.825639|    0.897835|    1.939568|    0.168679|
|         919|           0|   -4.580453|   -1.804641|   -1.831606|    0.850405|    1.939584|    0.168682|
|         920|           0|   -4.486349|   -1.941802|   -1.835726|    0.983240|    1.939602|    0.168685|
+-----------------------------------------------------------------------+
|        File Writing Summary       |              Filename             |
+-----------------------------------------------------------------------+
|SU2 restart                        |solution_flow.dat                  |
|Paraview                           |flow.vtu                           |
|Paraview surface                   |surface_flow.vtu                   |
+-----------------------------------------------------------------------+

Writing the forces breakdown file (forces_breakdown.dat).
+-------------------------------------------------------------------------------------------------------+
|  Inner_Iter|   Time_Iter|    rms[Rho]|   rms[RhoU]|   rms[RhoV]|   rms[RhoE]|          CL|          CD|
+-------------------------------------------------------------------------------------------------------+
|         921|           0|   -4.381002|   -1.657512|   -1.815846|    1.133519|    1.939619|    0.168688|
|         922|           0|   -4.306794|   -1.429340|   -1.772082|    1.239245|    1.939638|    0.168692|
|         923|           0|   -4.274328|   -1.299987|   -1.724222|    1.293661|    1.939654|    0.168694|
|         924|           0|   -4.284149|   -1.238750|   -1.691554|    1.299181|    1.939673|    0.168697|
|         925|           0|   -4.327553|   -1.227871|   -1.682985|    1.262322|    1.939690|    0.168699|
|         926|           0|   -4.386121|   -1.256288|   -1.700006|    1.192366|    1.939707|    0.168701|
|         927|           0|   -4.434091|   -1.318741|   -1.739414|    1.102233|    1.939724|    0.168703|
|         928|           0|   -4.445579|   -1.415968|   -1.791434|    1.022942|    1.939742|    0.168705|
|         929|           0|   -4.415194|   -1.555748|   -1.836463|    1.010131|    1.939757|    0.168706|
|         930|           0|   -4.361187|   -1.744998|   -1.852504|    1.074066|    1.939774|    0.168708|
+-----------------------------------------------------------------------+
|        File Writing Summary       |              Filename             |
+-----------------------------------------------------------------------+
|SU2 restart                        |solution_flow.dat                  |
|Paraview                           |flow.vtu                           |
|Paraview surface                   |surface_flow.vtu                   |
+-----------------------------------------------------------------------+

Writing the forces breakdown file (forces_breakdown.dat).
+-------------------------------------------------------------------------------------------------------+
|  Inner_Iter|   Time_Iter|    rms[Rho]|   rms[RhoU]|   rms[RhoV]|   rms[RhoE]|          CL|          CD|
+-------------------------------------------------------------------------------------------------------+
|         931|           0|   -4.298812|   -1.832102|   -1.833745|    1.169728|    1.939788|    0.168708|
|         932|           0|   -4.231243|   -1.599018|   -1.788862|    1.272028|    1.939804|    0.168709|
|         933|           0|   -4.155527|   -1.350985|   -1.723866|    1.378247|    1.939817|    0.168709|
|         934|           0|   -4.072918|   -1.149353|   -1.640526|    1.485709|    1.939831|    0.168709|
|         935|           0|   -4.195993|   -1.185904|   -1.660678|    1.379137|    1.939843|    0.168708|
|         936|           0|   -4.365854|   -1.292473|   -1.717391|    1.204873|    1.939856|    0.168708|
|         937|           0|   -4.449844|   -1.396654|   -1.767359|    1.070465|    1.939867|    0.168707|
|         938|           0|   -4.457755|   -1.496140|   -1.806824|    1.003967|    1.939879|    0.168707|
|         939|           0|   -4.451017|   -1.588829|   -1.836490|    0.981563|    1.939889|    0.168705|
|         940|           0|   -4.457740|   -1.671335|   -1.857705|    0.965872|    1.939899|    0.168704|
+-----------------------------------------------------------------------+
|        File Writing Summary       |              Filename             |
+-----------------------------------------------------------------------+
|SU2 restart                        |solution_flow.dat                  |
|Paraview                           |flow.vtu                           |
|Paraview surface                   |surface_flow.vtu                   |
+-----------------------------------------------------------------------+

Writing the forces breakdown file (forces_breakdown.dat).
+-------------------------------------------------------------------------------------------------------+
|  Inner_Iter|   Time_Iter|    rms[Rho]|   rms[RhoU]|   rms[RhoV]|   rms[RhoE]|          CL|          CD|
+-------------------------------------------------------------------------------------------------------+
|         941|           0|   -4.483000|   -1.738623|   -1.871767|    0.939649|    1.939907|    0.168702|
|         942|           0|   -4.522908|   -1.787491|   -1.880737|    0.902229|    1.939915|    0.168701|
|         943|           0|   -4.574012|   -1.819610|   -1.887028|    0.855710|    1.939922|    0.168698|
|         944|           0|   -4.497805|   -1.986378|   -1.891285|    0.966551|    1.939930|    0.168697|
|         945|           0|   -4.390947|   -1.698897|   -1.867309|    1.119456|    1.939935|    0.168694|
|         946|           0|   -4.313149|   -1.451828|   -1.814269|    1.230073|    1.939941|    0.168692|
|         947|           0|   -4.276439|   -1.312436|   -1.756660|    1.289586|    1.939946|    0.168690|
|         948|           0|   -4.282369|   -1.244585|   -1.716592|    1.299792|    1.939952|    0.168688|
|         949|           0|   -4.323356|   -1.228869|   -1.703429|    1.266766|    1.939956|    0.168686|
|         950|           0|   -4.382261|   -1.253509|   -1.718681|    1.199306|    1.939961|    0.168684|
+-----------------------------------------------------------------------+
|        File Writing Summary       |              Filename             |
+-----------------------------------------------------------------------+
|SU2 restart                        |solution_flow.dat                  |
|Paraview                           |flow.vtu                           |
|Paraview surface                   |surface_flow.vtu                   |
+-----------------------------------------------------------------------+

Writing the forces breakdown file (forces_breakdown.dat).
+-------------------------------------------------------------------------------------------------------+
|  Inner_Iter|   Time_Iter|    rms[Rho]|   rms[RhoU]|   rms[RhoV]|   rms[RhoE]|          CL|          CD|
+-------------------------------------------------------------------------------------------------------+
|         951|           0|   -4.433515|   -1.312663|   -1.759718|    1.109574|    1.939964|    0.168681|
|         952|           0|   -4.450071|   -1.406563|   -1.817916|    1.025616|    1.939969|    0.168680|
|         953|           0|   -4.423475|   -1.542753|   -1.873136|    1.002983|    1.939971|    0.168677|
|         954|           0|   -4.370322|   -1.732200|   -1.897465|    1.061687|    1.939974|    0.168676|
|         955|           0|   -4.307701|   -1.854012|   -1.879278|    1.157018|    1.939977|    0.168674|
|         956|           0|   -4.240108|   -1.631940|   -1.829364|    1.259813|    1.939981|    0.168673|
|         957|           0|   -4.165022|   -1.376192|   -1.757793|    1.365991|    1.939983|    0.168671|
|         958|           0|   -4.082617|   -1.169307|   -1.668038|    1.473845|    1.939986|    0.168670|
|         959|           0|   -4.174999|   -1.174493|   -1.673174|    1.398990|    1.939988|    0.168669|
|         960|           0|   -4.352378|   -1.281434|   -1.735115|    1.221929|    1.939994|    0.168669|
+-----------------------------------------------------------------------+
|        File Writing Summary       |              Filename             |
+-----------------------------------------------------------------------+
|SU2 restart                        |solution_flow.dat                  |
|Paraview                           |flow.vtu                           |
|Paraview surface                   |surface_flow.vtu                   |
+-----------------------------------------------------------------------+

Writing the forces breakdown file (forces_breakdown.dat).
+-------------------------------------------------------------------------------------------------------+
|  Inner_Iter|   Time_Iter|    rms[Rho]|   rms[RhoU]|   rms[RhoV]|   rms[RhoE]|          CL|          CD|
+-------------------------------------------------------------------------------------------------------+
|         961|           0|   -4.448918|   -1.386507|   -1.792142|    1.079850|    1.939997|    0.168668|
|         962|           0|   -4.462104|   -1.487442|   -1.838533|    1.005367|    1.940001|    0.168668|
|         963|           0|   -4.454937|   -1.582319|   -1.874135|    0.979686|    1.940004|    0.168668|
|         964|           0|   -4.459562|   -1.668045|   -1.899920|    0.964426|    1.940009|    0.168668|
|         965|           0|   -4.483322|   -1.739608|   -1.917056|    0.939022|    1.940013|    0.168668|
|         966|           0|   -4.522560|   -1.792937|   -1.927711|    0.901844|    1.940018|    0.168668|
|         967|           0|   -4.573961|   -1.828699|   -1.934785|    0.854595|    1.940023|    0.168669|
|         968|           0|   -4.513135|   -2.011475|   -1.940057|    0.946668|    1.940029|    0.168670|
|         969|           0|   -4.403532|   -1.737398|   -1.913411|    1.103546|    1.940035|    0.168671|
|         970|           0|   -4.321532|   -1.472922|   -1.852067|    1.219582|    1.940042|    0.168672|
+-----------------------------------------------------------------------+
|        File Writing Summary       |              Filename             |
+-----------------------------------------------------------------------+
|SU2 restart                        |solution_flow.dat                  |
|Paraview                           |flow.vtu                           |
|Paraview surface                   |surface_flow.vtu                   |
+-----------------------------------------------------------------------+

Writing the forces breakdown file (forces_breakdown.dat).
+-------------------------------------------------------------------------------------------------------+
|  Inner_Iter|   Time_Iter|    rms[Rho]|   rms[RhoU]|   rms[RhoV]|   rms[RhoE]|          CL|          CD|
+-------------------------------------------------------------------------------------------------------+
|         971|           0|   -4.280291|   -1.324140|   -1.785426|    1.284340|    1.940049|    0.168673|
|         972|           0|   -4.282157|   -1.250051|   -1.738479|    1.299236|    1.940057|    0.168675|
|         973|           0|   -4.320063|   -1.229725|   -1.720928|    1.270250|    1.940064|    0.168677|
|         974|           0|   -4.377987|   -1.250728|   -1.734255|    1.205817|    1.940073|    0.168678|
|         975|           0|   -4.431232|   -1.306699|   -1.776380|    1.117280|    1.940081|    0.168680|
|         976|           0|   -4.451485|   -1.397377|   -1.839997|    1.030642|    1.940091|    0.168682|
|         977|           0|   -4.428219|   -1.529995|   -1.905336|    0.999836|    1.940100|    0.168683|
|         978|           0|   -4.376727|   -1.718520|   -1.938898|    1.052132|    1.940109|    0.168686|
|         979|           0|   -4.314585|   -1.873222|   -1.921460|    1.145988|    1.940118|    0.168687|
|         980|           0|   -4.247574|   -1.666730|   -1.865907|    1.248572|    1.940129|    0.168689|
+-----------------------------------------------------------------------+
|        File Writing Summary       |              Filename             |
+-----------------------------------------------------------------------+
|SU2 restart                        |solution_flow.dat                  |
|Paraview                           |flow.vtu                           |
|Paraview surface                   |surface_flow.vtu                   |
+-----------------------------------------------------------------------+

Writing the forces breakdown file (forces_breakdown.dat).
+-------------------------------------------------------------------------------------------------------+
|  Inner_Iter|   Time_Iter|    rms[Rho]|   rms[RhoU]|   rms[RhoV]|   rms[RhoE]|          CL|          CD|
+-------------------------------------------------------------------------------------------------------+
|         981|           0|   -4.173411|   -1.402283|   -1.787765|    1.354444|    1.940139|    0.168691|
|         982|           0|   -4.091778|   -1.189818|   -1.692358|    1.462223|    1.940150|    0.168693|
|         983|           0|   -4.154134|   -1.163734|   -1.680354|    1.418195|    1.940159|    0.168695|
|         984|           0|   -4.336758|   -1.271099|   -1.746369|    1.239344|    1.940170|    0.168697|
|         985|           0|   -4.444592|   -1.377149|   -1.810037|    1.090860|    1.940180|    0.168699|
|         986|           0|   -4.464192|   -1.479666|   -1.863985|    1.008210|    1.940191|    0.168700|
|         987|           0|   -4.456756|   -1.576857|   -1.907042|    0.979307|    1.940200|    0.168702|
|         988|           0|   -4.459382|   -1.665890|   -1.939511|    0.964436|    1.940211|    0.168704|
|         989|           0|   -4.481274|   -1.741760|   -1.961960|    0.940360|    1.940220|    0.168704|
|         990|           0|   -4.519106|   -1.799616|   -1.976185|    0.904360|    1.940230|    0.168706|
+-----------------------------------------------------------------------+
|        File Writing Summary       |              Filename             |
+-----------------------------------------------------------------------+
|SU2 restart                        |solution_flow.dat                  |
|Paraview                           |flow.vtu                           |
|Paraview surface                   |surface_flow.vtu                   |
+-----------------------------------------------------------------------+

Writing the forces breakdown file (forces_breakdown.dat).
+-------------------------------------------------------------------------------------------------------+
|  Inner_Iter|   Time_Iter|    rms[Rho]|   rms[RhoU]|   rms[RhoV]|   rms[RhoE]|          CL|          CD|
+-------------------------------------------------------------------------------------------------------+
|         991|           0|   -4.569591|   -1.839107|   -1.985440|    0.857860|    1.940239|    0.168707|
|         992|           0|   -4.524685|   -2.035139|   -1.992826|    0.930359|    1.940250|    0.168708|
|         993|           0|   -4.413538|   -1.781504|   -1.963337|    1.089668|    1.940259|    0.168708|
|         994|           0|   -4.327991|   -1.495571|   -1.891621|    1.210530|    1.940269|    0.168709|
|         995|           0|   -4.282482|   -1.336444|   -1.814146|    1.280312|    1.940277|    0.168709|
|         996|           0|   -4.280406|   -1.255866|   -1.759223|    1.299779|    1.940287|    0.168710|
|         997|           0|   -4.315536|   -1.230899|   -1.736476|    1.274643|    1.940294|    0.168709|
|         998|           0|   -4.372600|   -1.248366|   -1.746949|    1.213232|    1.940302|    0.168709|
|         999|           0|   -4.427964|   -1.301328|   -1.788771|    1.126189|    1.940309|    0.168709|

----------------------------- Solver Exit -------------------------------

Maximum number of iterations reached (ITER = 1000) before convergence.
+-----------------------------------------------------------------------+
|      Convergence Field     |     Value    |   Criterion  |  Converged |
+-----------------------------------------------------------------------+
|                  Cauchy[CD]|   9.60405e-06|       < 1e-10|          No|
+-----------------------------------------------------------------------+
-------------------------------------------------------------------------
+-----------------------------------------------------------------------+
|        File Writing Summary       |              Filename             |
+-----------------------------------------------------------------------+
|SU2 restart                        |solution_flow.dat                  |
|Paraview                           |flow.vtu                           |
|Paraview surface                   |surface_flow.vtu                   |
+-----------------------------------------------------------------------+

Writing the forces breakdown file (forces_breakdown.dat).

------------------------- Solver Postprocessing -------------------------
Deleted CNumerics container.
Deleted CIntegration container.
Deleted CSolver container.
Deleted CIteration container.
Deleted CInterpolator container.
Deleted CInterface container.
Deleted CGeometry container.
Deleted CFreeFormDefBox class.
Deleted CSurfaceMovement class.
Deleted CVolumetricMovement class.
Deleted CConfig container.
Deleted nInst container.
Deleted COutput class.
-------------------------------------------------------------------------

------------------------- Exit Success (SU2_CFD) ------------------------

