
-------------------------------------------------------------------------
|    ___ _   _ ___                                                      |
|   / __| | | |_  )   Release 7.0.3 "Blackbird"                       |
|   \__ \ |_| |/ /                                                    |
|   |___/\___//___|   Suite (Computational Fluid Dynamics Code)        |
|                                                                       |
-------------------------------------------------------------------------
| SU2 Project Website: https://su2code.github.io                        |
|                                                                       |
| The SU2 Project is maintained by the SU2 Foundation                   |
| (http://su2foundation.org)                                            |
-------------------------------------------------------------------------
| Copyright 2012-2020, SU2 Contributors                                 |
|                                                                       |
| SU2 is free software; you can redistribute it and/or                  |
| modify it under the terms of the GNU Lesser General Public            |
| License as published by the Free Software Foundation; either          |
| version 2.1 of the License, or (at your option) any later version.    |
|                                                                       |
| SU2 is distributed in the hope that it will be useful,                |
| but WITHOUT ANY WARRANTY; without even the implied warranty of        |
| MERCHANTABILITY or FITNESS FOR A PARTICULAR PURPOSE. See the GNU      |
| Lesser General Public License for more details.                       |
|                                                                       |
| You should have received a copy of the GNU Lesser General Public      |
| License along with SU2. If not, see <http://www.gnu.org/licenses/>.   |
-------------------------------------------------------------------------


Problem definition:

Compressible Euler equations.
Mach number: 0.3.
Angle of attack (AoA): 2 deg, and angle of sideslip (AoS): 0 deg.
Dimensional simulation.
The reference area is 55.7983 m^2.
The reference length is 1.8008 m.


Problem definition:

Inviscid flow: Computing density based on free-stream
temperature and pressure using the ideal gas law.
Force coefficients computed using free-stream values.
-- Input conditions:
Fluid Model: STANDARD_AIR 
Specific gas constant: 287.058 N.m/kg.K.
Specific gas constant (non-dim): 287.058
Specific Heat Ratio: 1.4000 
Free-stream static pressure: 101325 Pa.
Free-stream total pressure: 107853 Pa.
Free-stream temperature: 288.15 K.
Free-stream total temperature: 293.337 K.
Free-stream density: 1.22498 kg/m^3.
Free-stream velocity: (102.027, 0, 3.56286) m/s. Magnitude: 102.089 m/s.
Free-stream total energy per unit mass: 212000 m^2/s^2.
-- Reference values:
Reference specific gas constant: 1 N.m/kg.K.
Reference pressure: 1 Pa.
Reference temperature: 1 K.
Reference density: 1 kg/m^3.
Reference velocity: 1 m/s.
Reference energy per unit mass: 1 m^2/s^2.
-- Resulting non-dimensional state:
Mach number (non-dim): 0.3
Specific gas constant (non-dim): 287.058
Free-stream temperature (non-dim): 288.15
Free-stream pressure (non-dim): 101325
Free-stream density (non-dim): 1.22498
Free-stream velocity (non-dim): (102.027, 0, 3.56286). Magnitude: 102.089
Free-stream total energy per unit mass (non-dim): 212000


Forces breakdown:

Center of Pressure: X=0.144844Z+9.569536 m.

NOTE: Multiply forces by the non-dimensional factor: 356187.053093, and the reference factor: 1.000000
to obtain the dimensional force.

Total CL:       0.395984 | Pressure (   99%):    0.395984 | Friction (    0%):    0.000000 | Momentum (    0%):    0.000000
Total CD:       0.071546 | Pressure (   99%):    0.071546 | Friction (    0%):    0.000000 | Momentum (    0%):    0.000000
Total CSF:     -0.000292 | Pressure (  100%):   -0.000292 | Friction (    0%):    0.000000 | Momentum (    0%):    0.000000
Total CL/CD:    5.534688 | Pressure (   99%):    5.534688 | Friction (    0%):    0.000000 | Momentum (    0%):    0.000000
Total CMx:     -0.094272 | Pressure (  100%):   -0.094272 | Friction (    0%):    0.000000 | Momentum (    0%):    0.000000
Total CMy:     -0.071686 | Pressure (  100%):   -0.071686 | Friction (    0%):    0.000000 | Momentum (    0%):    0.000000
Total CMz:     -0.000147 | Pressure (  100%):   -0.000147 | Friction (    0%):    0.000000 | Momentum (    0%):    0.000000
Total CFx:      0.057683 | Pressure (   99%):    0.057683 | Friction (    0%):    0.000000 | Momentum (    0%):    0.000000
Total CFy:     -0.000292 | Pressure (  100%):   -0.000292 | Friction (    0%):    0.000000 | Momentum (    0%):    0.000000
Total CFz:      0.398239 | Pressure (   99%):    0.398239 | Friction (    0%):    0.000000 | Momentum (    0%):    0.000000


Surface name: VTP

Total CL    (    0%):   -0.000403 | Pressure (  100%):   -0.000403 | Friction (    0%):    0.000000 | Momentum (    0%):    0.000000
Total CD    (    1%):    0.001274 | Pressure (   99%):    0.001274 | Friction (    0%):    0.000000 | Momentum (    0%):    0.000000
Total CSF   (   -4%):    0.000014 | Pressure (   99%):    0.000014 | Friction (    0%):    0.000000 | Momentum (    0%):    0.000000
Total CL/CD (   -5%):   -0.316519 | Pressure (  100%):   -0.316519 | Friction (    0%):    0.000000 | Momentum (    0%):    0.000000
Total CMx   (    0%):   -0.000351 | Pressure (  100%):   -0.000351 | Friction (    0%):    0.000000 | Momentum (    0%):    0.000000
Total CMy   (   -3%):    0.002695 | Pressure (   99%):    0.002695 | Friction (    0%):    0.000000 | Momentum (    0%):    0.000000
Total CMz   ( -164%):    0.000242 | Pressure (   99%):    0.000242 | Friction (    0%):    0.000000 | Momentum (    0%):    0.000000
Total CFx   (    2%):    0.001288 | Pressure (   99%):    0.001288 | Friction (    0%):    0.000000 | Momentum (    0%):    0.000000
Total CFy   (   -4%):    0.000014 | Pressure (   99%):    0.000014 | Friction (    0%):    0.000000 | Momentum (    0%):    0.000000
Total CFz   (    0%):   -0.000359 | Pressure (  100%):   -0.000359 | Friction (    0%):    0.000000 | Momentum (    0%):    0.000000

Surface name: Fuselage

Total CL    (    5%):    0.020408 | Pressure (   99%):    0.020408 | Friction (    0%):    0.000000 | Momentum (    0%):    0.000000
Total CD    (    6%):    0.004357 | Pressure (   99%):    0.004357 | Friction (    0%):    0.000000 | Momentum (    0%):    0.000000
Total CSF   (  154%):   -0.000450 | Pressure (  100%):   -0.000450 | Friction (    0%):    0.000000 | Momentum (    0%):    0.000000
Total CL/CD (   84%):    4.683704 | Pressure (  100%):    4.683704 | Friction (    0%):    0.000000 | Momentum (    0%):    0.000000
Total CMx   (    0%):    0.000096 | Pressure (   99%):    0.000096 | Friction (    0%):    0.000000 | Momentum (    0%):    0.000000
Total CMy   (  -29%):    0.021136 | Pressure (   99%):    0.021136 | Friction (    0%):    0.000000 | Momentum (    0%):    0.000000
Total CMz   (-1763%):    0.002596 | Pressure (   99%):    0.002596 | Friction (    0%):    0.000000 | Momentum (    0%):    0.000000
Total CFx   (    6%):    0.003642 | Pressure (   99%):    0.003642 | Friction (    0%):    0.000000 | Momentum (    0%):    0.000000
Total CFy   (  154%):   -0.000450 | Pressure (  100%):   -0.000450 | Friction (    0%):    0.000000 | Momentum (    0%):    0.000000
Total CFz   (    5%):    0.020548 | Pressure (   99%):    0.020548 | Friction (    0%):    0.000000 | Momentum (    0%):    0.000000

Surface name: HTP

Total CL    (   -8%):   -0.035189 | Pressure (  100%):   -0.035189 | Friction (    0%):    0.000000 | Momentum (    0%):    0.000000
Total CD    (    4%):    0.002939 | Pressure (   99%):    0.002939 | Friction (    0%):    0.000000 | Momentum (    0%):    0.000000
Total CSF   (  -13%):    0.000040 | Pressure (   99%):    0.000040 | Friction (    0%):    0.000000 | Momentum (    0%):    0.000000
Total CL/CD ( -216%):  -11.973170 | Pressure (  100%):  -11.973170 | Friction (    0%):    0.000000 | Momentum (    0%):    0.000000
Total CMx   (    0%):    0.000162 | Pressure (   99%):    0.000162 | Friction (    0%):    0.000000 | Momentum (    0%):    0.000000
Total CMy   ( -181%):    0.130378 | Pressure (   99%):    0.130378 | Friction (    0%):    0.000000 | Momentum (    0%):    0.000000
Total CMz   ( -130%):    0.000191 | Pressure (   99%):    0.000191 | Friction (    0%):    0.000000 | Momentum (    0%):    0.000000
Total CFx   (    7%):    0.004165 | Pressure (   99%):    0.004165 | Friction (    0%):    0.000000 | Momentum (    0%):    0.000000
Total CFy   (  -13%):    0.000040 | Pressure (   99%):    0.000040 | Friction (    0%):    0.000000 | Momentum (    0%):    0.000000
Total CFz   (   -8%):   -0.035065 | Pressure (  100%):   -0.035065 | Friction (    0%):    0.000000 | Momentum (    0%):    0.000000

Surface name: Wing

Total CL    (  103%):    0.411167 | Pressure (   99%):    0.411167 | Friction (    0%):    0.000000 | Momentum (    0%):    0.000000
Total CD    (   88%):    0.062975 | Pressure (   99%):    0.062975 | Friction (    0%):    0.000000 | Momentum (    0%):    0.000000
Total CSF   (  -36%):    0.000105 | Pressure (   99%):    0.000105 | Friction (    0%):    0.000000 | Momentum (    0%):    0.000000
Total CL/CD (  117%):    6.529054 | Pressure (  100%):    6.529054 | Friction (    0%):    0.000000 | Momentum (    0%):    0.000000
Total CMx   (   99%):   -0.094179 | Pressure (  100%):   -0.094179 | Friction (    0%):    0.000000 | Momentum (    0%):    0.000000
Total CMy   (  315%):   -0.225894 | Pressure (  100%):   -0.225894 | Friction (    0%):    0.000000 | Momentum (    0%):    0.000000
Total CMz   ( 2158%):   -0.003176 | Pressure (  100%):   -0.003176 | Friction (    0%):    0.000000 | Momentum (    0%):    0.000000
Total CFx   (   84%):    0.048587 | Pressure (   99%):    0.048587 | Friction (    0%):    0.000000 | Momentum (    0%):    0.000000
Total CFy   (  -36%):    0.000105 | Pressure (   99%):    0.000105 | Friction (    0%):    0.000000 | Momentum (    0%):    0.000000
Total CFz   (  103%):    0.413115 | Pressure (   99%):    0.413115 | Friction (    0%):    0.000000 | Momentum (    0%):    0.000000

