
-------------------------------------------------------------------------
|    ___ _   _ ___                                                      |
|   / __| | | |_  )   Release 7.0.3 "Blackbird"                         |
|   \__ \ |_| |/ /                                                      |
|   |___/\___//___|   Suite (Computational Fluid Dynamics Code)         |
|                                                                       |
-------------------------------------------------------------------------
| SU2 Project Website: https://su2code.github.io                        |
|                                                                       |
| The SU2 Project is maintained by the SU2 Foundation                   |
| (http://su2foundation.org)                                            |
-------------------------------------------------------------------------
| Copyright 2012-2020, SU2 Contributors                                 |
|                                                                       |
| SU2 is free software; you can redistribute it and/or                  |
| modify it under the terms of the GNU Lesser General Public            |
| License as published by the Free Software Foundation; either          |
| version 2.1 of the License, or (at your option) any later version.    |
|                                                                       |
| SU2 is distributed in the hope that it will be useful,                |
| but WITHOUT ANY WARRANTY; without even the implied warranty of        |
| MERCHANTABILITY or FITNESS FOR A PARTICULAR PURPOSE. See the GNU      |
| Lesser General Public License for more details.                       |
|                                                                       |
| You should have received a copy of the GNU Lesser General Public      |
| License along with SU2. If not, see <http://www.gnu.org/licenses/>.   |
-------------------------------------------------------------------------

Parsing config file for zone 0

----------------- Physical Case Definition ( Zone 0 ) -------------------
Compressible Euler equations.
Mach number: 0.294.
Angle of attack (AoA): 10 deg, and angle of sideslip (AoS): 0 deg.
No restart solution, use the values at infinity (freestream).
Dimensional simulation.
The reference area is 10 m^2.
The semi-span will be computed using the max y(3D) value.
The reference length is 1 m.
Reference origin for moment evaluation is (0, 0, 0).
Surface(s) where the force coefficients are evaluated: Wing_1.

Surface(s) where the objective function is evaluated: airfoil.
Surface(s) plotted in the output file: Wing_1.
Surface(s) to be analyzed in detail: airfoil.
Surface(s) affected by the design variables: Wing_1.
Input mesh file name: deformed.su2

--------------- Space Numerical Integration ( Zone 0 ) ------------------
Roe (with entropy fix = 0) solver for the flow inviscid terms.
Roe with DDES's FD low-dissipation function.
Second order integration in space, with slope limiter.
Venkatakrishnan slope-limiting method, with constant: 0.05. 
The reference element size is: 1. 
Gradient for upwind reconstruction: Green-Gauss.
Gradient for viscous and source terms: Green-Gauss.

--------------- Time Numerical Integration  ( Zone 0 ) ------------------
Local time stepping (steady state simulation).
Euler implicit method for the flow equations.
FGMRES is used for solving the linear system.
Using a ILU(0) preconditioning.
Convergence criteria of the linear solver: 1e-06.
Max number of linear iterations: 5.
V Multigrid Cycle, with 3 multigrid levels.
Damping factor for the residual restriction: 0.75.
Damping factor for the correction prolongation: 0.75.
No CFL adaptation.
+-------------------------------------------+
|  MG Level| Presmooth|PostSmooth|CorrectSmo|
+-------------------------------------------+
|         0|         1|         0|         0|
|         1|         2|         0|         0|
|         2|         3|         0|         0|
|         3|         3|         0|         0|
+-------------------------------------------+
Courant-Friedrichs-Lewy number:        1

------------------ Convergence Criteria  ( Zone 0 ) ---------------------
Maximum number of solver subiterations: 1000.
Begin convergence monitoring at iteration 10.
Residual minimum value: 1e-8.
Cauchy series min. value: 1e-10.
Number of Cauchy elements: 100.
Begin windowed time average at iteration 15.

-------------------- Output Information ( Zone 0 ) ----------------------
Writing solution files every 10 iterations.
Writing the convergence history file every 1 inner iterations.
Writing the screen convergence history every 1 inner iterations.
The tabular file format is Tecplot (.dat).
Convergence history file name: history.
Forces breakdown file name: forces_breakdown.dat.
Surface file name: surface_flow.
Volume file name: flow.
Restart file name: solution_flow.dat.

------------- Config File Boundary Information ( Zone 0 ) ---------------
+-----------------------------------------------------------------------+
|                        Marker Type|                        Marker Name|
+-----------------------------------------------------------------------+
|                         Euler wall|                             Wing_1|
+-----------------------------------------------------------------------+
|                          Far-field|                           Farfield|
+-----------------------------------------------------------------------+
|                     Symmetry plane|                                  0|
+-----------------------------------------------------------------------+
|           Deformable mesh boundary|                            airfoil|
+-----------------------------------------------------------------------+

-------------------- Output Preprocessing ( Zone 0 ) --------------------
Screen output fields: INNER_ITER, TIME_ITER, RMS_DENSITY, RMS_MOMENTUM-X, RMS_MOMENTUM-Y, RMS_ENERGY, LIFT, DRAG
  Info: Ignoring the following history output groups:
  TIME_ITER
History output group(s): ITER, RMS_RES, AERO_COEFF
Warning: No (valid) fields chosen for convergence monitoring. Convergence monitoring inactive.
Warning: No (valid) fields chosen for time convergence monitoring. Time convergence monitoring inactive.
Volume output fields: COORDINATES, SOLUTION, PRIMITIVE

------------------- Geometry Preprocessing ( Zone 0 ) -------------------
Three dimensional problem.
142678 grid points before partitioning.
739205 volume elements before partitioning.
2 surface markers.
99234 boundary elements in index 0 (Marker = Wing_1).
1280 boundary elements in index 1 (Marker = Farfield).
Executing the partitioning functions.
Building the graph adjacency structure.
Calling ParMETIS... graph partitioning complete (4166 edge cuts).
Distributing ParMETIS coloring.
Rebalancing vertices.
Rebalancing volume element connectivity.
Rebalancing markers and surface elements.
144929 vertices including ghost points. 
745322 interior elements including halo cells. 
745322 tetrahedra.
Establishing MPI communication patterns.
Setting point connectivity.
Renumbering points (Reverse Cuthill McKee Ordering).
Recomputing point connectivity.
Setting element connectivity.
Checking the numerical grid orientation.
Identifying edges and vertices.
Computing centers of gravity.
Setting the control volume structure.
Volume of the computational grid: 587953.
Searching for the closest normal neighbors to the surfaces.
Storing a mapping from global to local point index.
Compute the surface curvature.
Max K: 953.224. Mean K: 12.8958. Standard deviation K: 55.0528.
Checking for periodicity.
Computing mesh quality statistics for the dual control volumes.
+--------------------------------------------------------------+
|           Mesh Quality Metric|        Minimum|        Maximum|
+--------------------------------------------------------------+
|    Orthogonality Angle (deg.)|        46.6629|        85.7454|
|     CV Face Area Aspect Ratio|        1.42413|        38.0703|
|           CV Sub-Volume Ratio|        1.02921|        142.057|
+--------------------------------------------------------------+
Setting the multigrid structure.
+-------------------------------------------+
|  MG Level|       CVs|Aggl. Rate|       CFL|
+-------------------------------------------+
|         0|    144929|    1/1.00|         1|
|         1|     24168|       1/6|  0.825632|
|         2|      3805|    1/6.35|  0.668727|
|         3|       762|    1/4.99|  0.586868|
+-------------------------------------------+
Finding max control volume width.
Communicating number of neighbors.
Semi-span length = 5.01592 m.
Wetted area = 42.3098 m^2.
Area projection in the x-plane = 3.07685 m^2, y-plane = 1.48862 m^2, z-plane = 20.167 m^2.
Max. coordinate in the x-direction = 1.02156 m, y-direction = 5.01592 m, z-direction = 0.469422 m.
Min. coordinate in the x-direction = -1.02129 m, y-direction = -5.01608 m, z-direction = -0.11877 m.
Checking if Euler & Symmetry markers are straight/plane:
Boundary marker Wing_1 is NOT a single plane.
Boundary marker 0 is a single plane.

-------------------- Solver Preprocessing ( Zone 0 ) --------------------
Inviscid flow: Computing density based on free-stream
temperature and pressure using the ideal gas law.
Force coefficients computed using free-stream values.

-- Models:
+------------------------------------------------------------------------------+
|          Viscosity Model|        Conductivity Model|              Fluid Model|
+------------------------------------------------------------------------------+
|                        -|                         -|             STANDARD_AIR|
+------------------------------------------------------------------------------+
-- Fluid properties:
+------------------------------------------------------------------------------+
|                  Name|    Dim. value|    Ref. value|      Unit|Non-dim. value|
+------------------------------------------------------------------------------+
|          Gas Constant|       287.058|             1|  N.m/kg.K|       287.058|
|      Spec. Heat Ratio|             -|             -|         -|           1.4|
+------------------------------------------------------------------------------+
-- Initial and free-stream conditions:
+------------------------------------------------------------------------------+
|                  Name|    Dim. value|    Ref. value|      Unit|Non-dim. value|
+------------------------------------------------------------------------------+
|       Static Pressure|        101325|             1|        Pa|        101325|
|               Density|       1.22498|             1|    kg/m^3|       1.22498|
|           Temperature|        288.15|             1|         K|        288.15|
|          Total Energy|        211794|             1|   m^2/s^2|        211794|
|            Velocity-X|       98.5274|             1|       m/s|       98.5274|
|            Velocity-Y|             0|             1|       m/s|             0|
|            Velocity-Z|        17.373|             1|       m/s|        17.373|
|    Velocity Magnitude|       100.047|             1|       m/s|       100.047|
+------------------------------------------------------------------------------+
|           Mach Number|             -|             -|         -|         0.294|
+------------------------------------------------------------------------------+
Initialize Jacobian structure (Euler). MG level: 0.
Initialize Jacobian structure (Euler). MG level: 1.
Initialize Jacobian structure (Euler). MG level: 2.
Initialize Jacobian structure (Euler). MG level: 3.

------------------- Numerics Preprocessing ( Zone 0 ) -------------------

----------------- Integration Preprocessing ( Zone 0 ) ------------------

------------------- Iteration Preprocessing ( Zone 0 ) ------------------
Euler/Navier-Stokes/RANS fluid iteration.

------------------------------ Begin Solver -----------------------------

Simulation Run using the Single-zone Driver
+-------------------------------------------------------------------------------------------------------+
|  Inner_Iter|   Time_Iter|    rms[Rho]|   rms[RhoU]|   rms[RhoV]|   rms[RhoE]|          CL|          CD|
+-------------------------------------------------------------------------------------------------------+
|           0|           0|   -1.667655|    0.500461|   -0.365991|    3.801445|    2.136402|    0.950841|
|           1|           0|   -1.741128|    0.472727|    0.043877|    3.729861|    3.698411|    1.635491|
|           2|           0|   -1.680170|    0.594301|    0.288594|    3.793909|    4.766688|    2.090558|
|           3|           0|   -1.591591|    0.721482|    0.438488|    3.883515|    5.431393|    2.355966|
|           4|           0|   -1.511148|    0.834681|    0.557561|    3.964406|    5.776448|    2.469564|
|           5|           0|   -1.441441|    0.936943|    0.665141|    4.034579|    5.876398|    2.466380|
|           6|           0|   -1.380587|    1.030089|    0.766310|    4.095914|    5.795030|    2.377418|
|           7|           0|   -1.327865|    1.114522|    0.861593|    4.149019|    5.585943|    2.229169|
|           8|           0|   -1.283368|    1.190344|    0.950435|    4.193709|    5.294368|    2.044112|
|           9|           0|   -1.247267|    1.257747|    1.032212|    4.229743|    4.956423|    1.840616|
|          10|           0|   -1.219906|    1.317103|    1.106414|    4.256700|    4.597751|    1.632284|
+-----------------------------------------------------------------------+
|        File Writing Summary       |              Filename             |
+-----------------------------------------------------------------------+
|SU2 restart                        |solution_flow.dat                  |
|Paraview                           |flow.vtu                           |
|Paraview surface                   |surface_flow.vtu                   |
+-----------------------------------------------------------------------+

Writing the forces breakdown file (forces_breakdown.dat).
+-------------------------------------------------------------------------------------------------------+
|  Inner_Iter|   Time_Iter|    rms[Rho]|   rms[RhoU]|   rms[RhoV]|   rms[RhoE]|          CL|          CD|
+-------------------------------------------------------------------------------------------------------+
|          11|           0|   -1.201466|    1.368583|    1.172790|    4.274258|    4.236427|    1.428690|
|          12|           0|   -1.192033|    1.412523|    1.231462|    4.282175|    3.884635|    1.236312|
|          13|           0|   -1.191440|    1.449234|    1.282496|    4.280384|    3.549386|    1.058829|
|          14|           0|   -1.199088|    1.478853|    1.325981|    4.269102|    3.233744|    0.897692|
|          15|           0|   -1.214055|    1.501618|    1.362077|    4.248787|    2.938061|    0.752838|
|          16|           0|   -1.234184|    1.517754|    1.390993|    4.221110|    2.660790|    0.623151|
|          17|           0|   -1.255328|    1.527469|    1.412773|    4.190207|    2.399520|    0.506988|
|          18|           0|   -1.271664|    1.530981|    1.427532|    4.163143|    2.151559|    0.402490|
|          19|           0|   -1.275993|    1.528410|    1.435423|    4.150420|    1.914389|    0.307837|
|          20|           0|   -1.264513|    1.519977|    1.436465|    4.159574|    1.686027|    0.221412|
+-----------------------------------------------------------------------+
|        File Writing Summary       |              Filename             |
+-----------------------------------------------------------------------+
|SU2 restart                        |solution_flow.dat                  |
|Paraview                           |flow.vtu                           |
|Paraview surface                   |surface_flow.vtu                   |
+-----------------------------------------------------------------------+

Writing the forces breakdown file (forces_breakdown.dat).
+-------------------------------------------------------------------------------------------------------+
|  Inner_Iter|   Time_Iter|    rms[Rho]|   rms[RhoU]|   rms[RhoV]|   rms[RhoE]|          CL|          CD|
+-------------------------------------------------------------------------------------------------------+
|          21|           0|   -1.238731|    1.506180|    1.430903|    4.189656|    1.465165|    0.141890|
|          22|           0|   -1.204369|    1.487235|    1.418926|    4.232019|    1.251346|    0.068316|
|          23|           0|   -1.167746|    1.464100|    1.400627|    4.277275|    1.044908|    0.000092|
|          24|           0|   -1.133623|    1.437150|    1.376523|    4.319037|    0.846873|   -0.063039|
|          25|           0|   -1.104841|    1.408050|    1.347230|    4.353985|    0.658778|   -0.121066|
|          26|           0|   -1.082967|    1.378785|    1.314338|    4.380500|    0.482481|   -0.173793|
|          27|           0|   -1.067752|    1.351332|    1.279532|    4.398931|    0.320040|   -0.220889|
|          28|           0|   -1.059124|    1.327361|    1.245153|    4.409372|    0.173500|   -0.261950|
|          29|           0|   -1.056146|    1.311349|    1.215342|    4.413004|    0.044759|   -0.296575|
|          30|           0|   -1.057988|    1.305189|    1.193437|    4.410712|   -0.064511|   -0.324406|
+-----------------------------------------------------------------------+
|        File Writing Summary       |              Filename             |
+-----------------------------------------------------------------------+
|SU2 restart                        |solution_flow.dat                  |
|Paraview                           |flow.vtu                           |
|Paraview surface                   |surface_flow.vtu                   |
+-----------------------------------------------------------------------+

Writing the forces breakdown file (forces_breakdown.dat).
+-------------------------------------------------------------------------------------------------------+
|  Inner_Iter|   Time_Iter|    rms[Rho]|   rms[RhoU]|   rms[RhoV]|   rms[RhoE]|          CL|          CD|
+-------------------------------------------------------------------------------------------------------+
|          31|           0|   -1.063004|    1.308327|    1.182292|    4.404133|   -0.152926|   -0.345168|
|          32|           0|   -1.070033|    1.320138|    1.183298|    4.394390|   -0.219433|   -0.358678|
|          33|           0|   -1.077110|    1.337657|    1.196245|    4.383787|   -0.263345|   -0.364863|
|          34|           0|   -1.082779|    1.359036|    1.217905|    4.373992|   -0.284366|   -0.363769|
|          35|           0|   -1.086920|    1.383189|    1.244538|    4.365631|   -0.282567|   -0.355553|
|          36|           0|   -1.089757|    1.408381|    1.273785|    4.359087|   -0.258394|   -0.340486|
|          37|           0|   -1.092755|    1.432028|    1.303526|    4.352917|   -0.212611|   -0.318928|
|          38|           0|   -1.096301|    1.452560|    1.331794|    4.346672|   -0.146301|   -0.291328|
|          39|           0|   -1.101018|    1.469098|    1.358487|    4.339591|   -0.060818|   -0.258209|
|          40|           0|   -1.107405|    1.481282|    1.382205|    4.331075|    0.042230|   -0.220157|
+-----------------------------------------------------------------------+
|        File Writing Summary       |              Filename             |
+-----------------------------------------------------------------------+
|SU2 restart                        |solution_flow.dat                  |
|Paraview                           |flow.vtu                           |
|Paraview surface                   |surface_flow.vtu                   |
+-----------------------------------------------------------------------+

Writing the forces breakdown file (forces_breakdown.dat).
+-------------------------------------------------------------------------------------------------------+
|  Inner_Iter|   Time_Iter|    rms[Rho]|   rms[RhoU]|   rms[RhoV]|   rms[RhoE]|          CL|          CD|
+-------------------------------------------------------------------------------------------------------+
|          41|           0|   -1.115337|    1.488725|    1.401648|    4.321253|    0.161005|   -0.177809|
|          42|           0|   -1.123072|    1.490937|    1.416388|    4.312030|    0.293463|   -0.131852|
|          43|           0|   -1.129170|    1.487567|    1.425902|    4.304984|    0.437405|   -0.083004|
|          44|           0|   -1.132017|    1.478715|    1.430221|    4.302154|    0.590493|   -0.032002|
|          45|           0|   -1.130012|    1.464249|    1.429054|    4.305347|    0.750324|    0.020401|
|          46|           0|   -1.122538|    1.444299|    1.422691|    4.315178|    0.914433|    0.073447|
|          47|           0|   -1.111265|    1.419384|    1.412058|    4.329575|    1.080365|    0.126390|
|          48|           0|   -1.098197|    1.390250|    1.397817|    4.345984|    1.245661|    0.178491|
|          49|           0|   -1.085290|    1.358808|    1.381088|    4.362097|    1.407947|    0.229040|
|          50|           0|   -1.074152|    1.327663|    1.363807|    4.375996|    1.564942|    0.277357|
+-----------------------------------------------------------------------+
|        File Writing Summary       |              Filename             |
+-----------------------------------------------------------------------+
|SU2 restart                        |solution_flow.dat                  |
|Paraview                           |flow.vtu                           |
|Paraview surface                   |surface_flow.vtu                   |
+-----------------------------------------------------------------------+

Writing the forces breakdown file (forces_breakdown.dat).
+-------------------------------------------------------------------------------------------------------+
|  Inner_Iter|   Time_Iter|    rms[Rho]|   rms[RhoU]|   rms[RhoV]|   rms[RhoE]|          CL|          CD|
+-------------------------------------------------------------------------------------------------------+
|          51|           0|   -1.066455|    1.299968|    1.347911|    4.385962|    1.714503|    0.322806|
|          52|           0|   -1.064083|    1.279922|    1.336257|    4.389990|    1.854657|    0.364805|
|          53|           0|   -1.066374|    1.270758|    1.330576|    4.388707|    1.983641|    0.402837|
|          54|           0|   -1.073471|    1.273591|    1.332093|    4.381829|    2.099919|    0.436456|
|          55|           0|   -1.085713|    1.285589|    1.339917|    4.368854|    2.202231|    0.465299|
|          56|           0|   -1.102217|    1.303152|    1.352524|    4.350484|    2.289601|    0.489091|
|          57|           0|   -1.120903|    1.322100|    1.367435|    4.328727|    2.361328|    0.507645|
|          58|           0|   -1.140697|    1.340388|    1.382692|    4.304546|    2.417004|    0.520867|
|          59|           0|   -1.159683|    1.356265|    1.396789|    4.279861|    2.456519|    0.528753|
|          60|           0|   -1.175708|    1.368667|    1.408581|    4.257324|    2.480042|    0.531387|
+-----------------------------------------------------------------------+
|        File Writing Summary       |              Filename             |
+-----------------------------------------------------------------------+
|SU2 restart                        |solution_flow.dat                  |
|Paraview                           |flow.vtu                           |
|Paraview surface                   |surface_flow.vtu                   |
+-----------------------------------------------------------------------+

Writing the forces breakdown file (forces_breakdown.dat).
+-------------------------------------------------------------------------------------------------------+
|  Inner_Iter|   Time_Iter|    rms[Rho]|   rms[RhoU]|   rms[RhoV]|   rms[RhoE]|          CL|          CD|
+-------------------------------------------------------------------------------------------------------+
|          61|           0|   -1.188341|    1.377067|    1.417602|    4.238244|    2.488002|    0.528940|
|          62|           0|   -1.196567|    1.381804|    1.423521|    4.224642|    2.481063|    0.521658|
|          63|           0|   -1.200181|    1.382436|    1.426306|    4.217623|    2.460103|    0.509855|
|          64|           0|   -1.199930|    1.379559|    1.425966|    4.216674|    2.426215|    0.493915|
|          65|           0|   -1.196832|    1.373516|    1.422672|    4.220843|    2.380644|    0.474270|
|          66|           0|   -1.191976|    1.364502|    1.416513|    4.228651|    2.324787|    0.451403|
|          67|           0|   -1.186709|    1.352279|    1.407765|    4.238089|    2.260141|    0.425829|
|          68|           0|   -1.182288|    1.336937|    1.396762|    4.247225|    2.188266|    0.398082|
|          69|           0|   -1.179384|    1.319451|    1.384026|    4.254935|    2.110779|    0.368714|
|          70|           0|   -1.178203|    1.300352|    1.370276|    4.260772|    2.029305|    0.338272|
+-----------------------------------------------------------------------+
|        File Writing Summary       |              Filename             |
+-----------------------------------------------------------------------+
|SU2 restart                        |solution_flow.dat                  |
|Paraview                           |flow.vtu                           |
|Paraview surface                   |surface_flow.vtu                   |
+-----------------------------------------------------------------------+

Writing the forces breakdown file (forces_breakdown.dat).
+-------------------------------------------------------------------------------------------------------+
|  Inner_Iter|   Time_Iter|    rms[Rho]|   rms[RhoU]|   rms[RhoV]|   rms[RhoE]|          CL|          CD|
+-------------------------------------------------------------------------------------------------------+
|          71|           0|   -1.179092|    1.279938|    1.355974|    4.264109|    1.945437|    0.307297|
|          72|           0|   -1.182195|    1.259285|    1.342171|    4.264641|    1.860743|    0.276313|
|          73|           0|   -1.187226|    1.239548|    1.329459|    4.262586|    1.776734|    0.245819|
|          74|           0|   -1.193819|    1.222199|    1.318787|    4.258247|    1.694819|    0.216280|
|          75|           0|   -1.202062|    1.208421|    1.310668|    4.251452|    1.616284|    0.188117|
|          76|           0|   -1.211846|    1.199051|    1.305307|    4.242179|    1.542290|    0.161706|
|          77|           0|   -1.223256|    1.195247|    1.302731|    4.230274|    1.473857|    0.137370|
|          78|           0|   -1.235563|    1.196771|    1.302733|    4.216455|    1.411868|    0.115382|
|          79|           0|   -1.249228|    1.202726|    1.304573|    4.200098|    1.357036|    0.095957|
|          80|           0|   -1.263836|    1.211664|    1.307440|    4.181680|    1.309919|    0.079253|
+-----------------------------------------------------------------------+
|        File Writing Summary       |              Filename             |
+-----------------------------------------------------------------------+
|SU2 restart                        |solution_flow.dat                  |
|Paraview                           |flow.vtu                           |
|Paraview surface                   |surface_flow.vtu                   |
+-----------------------------------------------------------------------+

Writing the forces breakdown file (forces_breakdown.dat).
+-------------------------------------------------------------------------------------------------------+
|  Inner_Iter|   Time_Iter|    rms[Rho]|   rms[RhoU]|   rms[RhoV]|   rms[RhoE]|          CL|          CD|
+-------------------------------------------------------------------------------------------------------+
|          81|           0|   -1.278347|    1.221880|    1.310563|    4.162352|    1.270908|    0.065374|
|          82|           0|   -1.292534|    1.232657|    1.313408|    4.142566|    1.240234|    0.054368|
|          83|           0|   -1.306171|    1.242601|    1.315579|    4.122855|    1.217985|    0.046229|
|          84|           0|   -1.318269|    1.250276|    1.316556|    4.104779|    1.204105|    0.040905|
|          85|           0|   -1.328971|    1.256044|    1.315729|    4.088849|    1.198398|    0.038296|
|          86|           0|   -1.338861|    1.259675|    1.312900|    4.074870|    1.200540|    0.038262|
|          87|           0|   -1.347793|    1.260887|    1.307720|    4.063283|    1.210101|    0.040628|
|          88|           0|   -1.355702|    1.259385|    1.300346|    4.054394|    1.226549|    0.045188|
|          89|           0|   -1.362707|    1.255538|    1.290812|    4.048060|    1.249278|    0.051717|
|          90|           0|   -1.369081|    1.249051|    1.279493|    4.043937|    1.277607|    0.059971|
+-----------------------------------------------------------------------+
|        File Writing Summary       |              Filename             |
+-----------------------------------------------------------------------+
|SU2 restart                        |solution_flow.dat                  |
|Paraview                           |flow.vtu                           |
|Paraview surface                   |surface_flow.vtu                   |
+-----------------------------------------------------------------------+

Writing the forces breakdown file (forces_breakdown.dat).
+-------------------------------------------------------------------------------------------------------+
|  Inner_Iter|   Time_Iter|    rms[Rho]|   rms[RhoU]|   rms[RhoV]|   rms[RhoE]|          CL|          CD|
+-------------------------------------------------------------------------------------------------------+
|          91|           0|   -1.374802|    1.239518|    1.266398|    4.041768|    1.310814|    0.069694|
|          92|           0|   -1.380374|    1.227362|    1.251539|    4.040613|    1.348135|    0.080625|
|          93|           0|   -1.386417|    1.212908|    1.235439|    4.039381|    1.388766|    0.092492|
|          94|           0|   -1.393143|    1.196661|    1.218590|    4.037638|    1.431918|    0.105033|
|          95|           0|   -1.400862|    1.179215|    1.201364|    4.034787|    1.476789|    0.117991|
|          96|           0|   -1.409734|    1.161059|    1.184377|    4.030480|    1.522605|    0.131124|
|          97|           0|   -1.419658|    1.143044|    1.168018|    4.024684|    1.568613|    0.144200|
|          98|           0|   -1.430542|    1.125763|    1.152658|    4.017360|    1.614112|    0.157008|
|          99|           0|   -1.443089|    1.110402|    1.138844|    4.007583|    1.658442|    0.169356|
|         100|           0|   -1.456893|    1.097911|    1.127030|    3.995876|    1.700973|    0.181068|
+-----------------------------------------------------------------------+
|        File Writing Summary       |              Filename             |
+-----------------------------------------------------------------------+
|SU2 restart                        |solution_flow.dat                  |
|Paraview                           |flow.vtu                           |
|Paraview surface                   |surface_flow.vtu                   |
+-----------------------------------------------------------------------+

Writing the forces breakdown file (forces_breakdown.dat).
+-------------------------------------------------------------------------------------------------------+
|  Inner_Iter|   Time_Iter|    rms[Rho]|   rms[RhoU]|   rms[RhoV]|   rms[RhoE]|          CL|          CD|
+-------------------------------------------------------------------------------------------------------+
|         101|           0|   -1.471728|    1.088724|    1.117422|    3.982437|    1.741170|    0.191999|
|         102|           0|   -1.487340|    1.082985|    1.109872|    3.967428|    1.778557|    0.202023|
|         103|           0|   -1.503611|    1.080638|    1.104206|    3.950908|    1.812721|    0.211043|
|         104|           0|   -1.520486|    1.081118|    1.099872|    3.933019|    1.843331|    0.218982|
|         105|           0|   -1.537637|    1.084216|    1.096382|    3.914138|    1.870122|    0.225789|
|         106|           0|   -1.555078|    1.089226|    1.093337|    3.894218|    1.892912|    0.231437|
|         107|           0|   -1.571941|    1.095119|    1.090318|    3.874225|    1.911587|    0.235917|
|         108|           0|   -1.588525|    1.100855|    1.086786|    3.853992|    1.926099|    0.239243|
|         109|           0|   -1.604789|    1.106172|    1.082553|    3.833835|    1.936474|    0.241446|
|         110|           0|   -1.620391|    1.110533|    1.077418|    3.814391|    1.942816|    0.242575|
+-----------------------------------------------------------------------+
|        File Writing Summary       |              Filename             |
+-----------------------------------------------------------------------+
|SU2 restart                        |solution_flow.dat                  |
|Paraview                           |flow.vtu                           |
|Paraview surface                   |surface_flow.vtu                   |
+-----------------------------------------------------------------------+

Writing the forces breakdown file (forces_breakdown.dat).
+-------------------------------------------------------------------------------------------------------+
|  Inner_Iter|   Time_Iter|    rms[Rho]|   rms[RhoU]|   rms[RhoV]|   rms[RhoE]|          CL|          CD|
+-------------------------------------------------------------------------------------------------------+
|         111|           0|   -1.635218|    1.113798|    1.071340|    3.795995|    1.945269|    0.242690|
|         112|           0|   -1.648892|    1.115811|    1.064049|    3.779434|    1.944028|    0.241862|
|         113|           0|   -1.661330|    1.116618|    1.055484|    3.764960|    1.939321|    0.240165|
|         114|           0|   -1.672579|    1.116208|    1.045301|    3.752759|    1.931425|    0.237684|
|         115|           0|   -1.682720|    1.114452|    1.033469|    3.742834|    1.920658|    0.234511|
|         116|           0|   -1.691571|    1.111287|    1.019946|    3.735413|    1.907366|    0.230741|
|         117|           0|   -1.698958|    1.106639|    1.004682|    3.730545|    1.891922|    0.226474|
|         118|           0|   -1.705110|    1.100560|    0.987700|    3.727818|    1.874692|    0.221803|
|         119|           0|   -1.710017|    1.093231|    0.969041|    3.726991|    1.856054|    0.216821|
|         120|           0|   -1.713914|    1.084696|    0.948854|    3.727585|    1.836375|    0.211617|
+-----------------------------------------------------------------------+
|        File Writing Summary       |              Filename             |
+-----------------------------------------------------------------------+
|SU2 restart                        |solution_flow.dat                  |
|Paraview                           |flow.vtu                           |
|Paraview surface                   |surface_flow.vtu                   |
+-----------------------------------------------------------------------+

Writing the forces breakdown file (forces_breakdown.dat).
+-------------------------------------------------------------------------------------------------------+
|  Inner_Iter|   Time_Iter|    rms[Rho]|   rms[RhoU]|   rms[RhoV]|   rms[RhoE]|          CL|          CD|
+-------------------------------------------------------------------------------------------------------+
|         121|           0|   -1.716955|    1.075138|    0.927407|    3.729149|    1.816026|    0.206276|
|         122|           0|   -1.719446|    1.064700|    0.904883|    3.731131|    1.795369|    0.200881|
|         123|           0|   -1.721713|    1.053462|    0.881711|    3.733010|    1.774750|    0.195509|
|         124|           0|   -1.724145|    1.042070|    0.858388|    3.734289|    1.754499|    0.190231|
|         125|           0|   -1.727388|    1.030771|    0.835319|    3.734061|    1.734930|    0.185113|
|         126|           0|   -1.731540|    1.019868|    0.813439|    3.732143|    1.716321|    0.180213|
|         127|           0|   -1.736636|    1.009232|    0.793667|    3.728534|    1.698920|    0.175579|
|         128|           0|   -1.742938|    0.999413|    0.776839|    3.722957|    1.682960|    0.171257|
|         129|           0|   -1.751051|    0.990623|    0.763748|    3.714687|    1.668631|    0.167283|
|         130|           0|   -1.760478|    0.983348|    0.754848|    3.704462|    1.656093|    0.163685|
+-----------------------------------------------------------------------+
|        File Writing Summary       |              Filename             |
+-----------------------------------------------------------------------+
|SU2 restart                        |solution_flow.dat                  |
|Paraview                           |flow.vtu                           |
|Paraview surface                   |surface_flow.vtu                   |
+-----------------------------------------------------------------------+

Writing the forces breakdown file (forces_breakdown.dat).
+-------------------------------------------------------------------------------------------------------+
|  Inner_Iter|   Time_Iter|    rms[Rho]|   rms[RhoU]|   rms[RhoV]|   rms[RhoE]|          CL|          CD|
+-------------------------------------------------------------------------------------------------------+
|         131|           0|   -1.771015|    0.976915|    0.749957|    3.692298|    1.645475|    0.160484|
|         132|           0|   -1.782750|    0.970205|    0.748257|    3.677808|    1.636871|    0.157697|
|         133|           0|   -1.794791|    0.964598|    0.749628|    3.662344|    1.630351|    0.155334|
|         134|           0|   -1.806942|    0.959741|    0.753034|    3.646115|    1.625951|    0.153398|
|         135|           0|   -1.818682|    0.955977|    0.757792|    3.629669|    1.623667|    0.151883|
|         136|           0|   -1.829846|    0.952870|    0.763067|    3.613239|    1.623471|    0.150783|
|         137|           0|   -1.839680|    0.949856|    0.767969|    3.597795|    1.625309|    0.150084|
|         138|           0|   -1.847930|    0.946689|    0.771785|    3.583828|    1.629083|    0.149762|
|         139|           0|   -1.854508|    0.942929|    0.774032|    3.571876|    1.634678|    0.149793|
|         140|           0|   -1.859466|    0.938434|    0.774310|    3.562402|    1.641935|    0.150142|
+-----------------------------------------------------------------------+
|        File Writing Summary       |              Filename             |
+-----------------------------------------------------------------------+
|SU2 restart                        |solution_flow.dat                  |
|Paraview                           |flow.vtu                           |
|Paraview surface                   |surface_flow.vtu                   |
+-----------------------------------------------------------------------+

Writing the forces breakdown file (forces_breakdown.dat).
+-------------------------------------------------------------------------------------------------------+
|  Inner_Iter|   Time_Iter|    rms[Rho]|   rms[RhoU]|   rms[RhoV]|   rms[RhoE]|          CL|          CD|
+-------------------------------------------------------------------------------------------------------+
|         141|           0|   -1.862238|    0.932908|    0.772523|    3.556442|    1.650689|    0.150775|
|         142|           0|   -1.863149|    0.926220|    0.768647|    3.553867|    1.660755|    0.151656|
|         143|           0|   -1.862803|    0.918447|    0.762422|    3.554066|    1.671934|    0.152745|
|         144|           0|   -1.861245|    0.909573|    0.753999|    3.556854|    1.684018|    0.154003|
|         145|           0|   -1.859361|    0.899408|    0.743345|    3.561133|    1.696791|    0.155391|
|         146|           0|   -1.857626|    0.888082|    0.730446|    3.566150|    1.710031|    0.156866|
|         147|           0|   -1.856421|    0.875725|    0.715318|    3.571268|    1.723518|    0.158391|
|         148|           0|   -1.855729|    0.862529|    0.698067|    3.576297|    1.737041|    0.159929|
|         149|           0|   -1.855803|    0.848606|    0.678974|    3.580769|    1.750380|    0.161441|
|         150|           0|   -1.856594|    0.834197|    0.658593|    3.584514|    1.763340|    0.162897|
+-----------------------------------------------------------------------+
|        File Writing Summary       |              Filename             |
+-----------------------------------------------------------------------+
|SU2 restart                        |solution_flow.dat                  |
|Paraview                           |flow.vtu                           |
|Paraview surface                   |surface_flow.vtu                   |
+-----------------------------------------------------------------------+

Writing the forces breakdown file (forces_breakdown.dat).
+-------------------------------------------------------------------------------------------------------+
|  Inner_Iter|   Time_Iter|    rms[Rho]|   rms[RhoU]|   rms[RhoV]|   rms[RhoE]|          CL|          CD|
+-------------------------------------------------------------------------------------------------------+
|         151|           0|   -1.858340|    0.819505|    0.637443|    3.587071|    1.775739|    0.164267|
|         152|           0|   -1.861080|    0.804871|    0.616177|    3.588336|    1.787411|    0.165529|
|         153|           0|   -1.864954|    0.790589|    0.595522|    3.587980|    1.798208|    0.166662|
|         154|           0|   -1.869973|    0.777173|    0.576756|    3.585868|    1.807996|    0.167650|
|         155|           0|   -1.876015|    0.765043|    0.561044|    3.582027|    1.816659|    0.168479|
|         156|           0|   -1.883154|    0.754522|    0.549321|    3.576256|    1.824102|    0.169137|
|         157|           0|   -1.891249|    0.746025|    0.541998|    3.568727|    1.830255|    0.169619|
|         158|           0|   -1.900276|    0.739432|    0.539358|    3.559324|    1.835071|    0.169923|
|         159|           0|   -1.909990|    0.734620|    0.540883|    3.548263|    1.838522|    0.170050|
|         160|           0|   -1.920336|    0.731492|    0.545641|    3.535503|    1.840618|    0.170007|
+-----------------------------------------------------------------------+
|        File Writing Summary       |              Filename             |
+-----------------------------------------------------------------------+
|SU2 restart                        |solution_flow.dat                  |
|Paraview                           |flow.vtu                           |
|Paraview surface                   |surface_flow.vtu                   |
+-----------------------------------------------------------------------+

Writing the forces breakdown file (forces_breakdown.dat).
+-------------------------------------------------------------------------------------------------------+
|  Inner_Iter|   Time_Iter|    rms[Rho]|   rms[RhoU]|   rms[RhoV]|   rms[RhoE]|          CL|          CD|
+-------------------------------------------------------------------------------------------------------+
|         161|           0|   -1.931235|    0.729762|    0.552524|    3.521128|    1.841376|    0.169803|
|         162|           0|   -1.942301|    0.729060|    0.560432|    3.505634|    1.840832|    0.169448|
|         163|           0|   -1.953514|    0.728923|    0.568475|    3.489004|    1.839053|    0.168957|
|         164|           0|   -1.964503|    0.728825|    0.575804|    3.471897|    1.836113|    0.168346|
|         165|           0|   -1.974977|    0.728451|    0.581801|    3.454832|    1.832112|    0.167634|
|         166|           0|   -1.984420|    0.727357|    0.586025|    3.438756|    1.827156|    0.166841|
|         167|           0|   -1.992621|    0.725214|    0.588129|    3.424358|    1.821370|    0.165987|
|         168|           0|   -1.999575|    0.721614|    0.587818|    3.412118|    1.814873|    0.165090|
|         169|           0|   -2.005377|    0.716251|    0.584862|    3.402303|    1.807815|    0.164176|
|         170|           0|   -2.009732|    0.709048|    0.579147|    3.395664|    1.800334|    0.163265|
+-----------------------------------------------------------------------+
|        File Writing Summary       |              Filename             |
+-----------------------------------------------------------------------+
|SU2 restart                        |solution_flow.dat                  |
|Paraview                           |flow.vtu                           |
|Paraview surface                   |surface_flow.vtu                   |
+-----------------------------------------------------------------------+

Writing the forces breakdown file (forces_breakdown.dat).
+-------------------------------------------------------------------------------------------------------+
|  Inner_Iter|   Time_Iter|    rms[Rho]|   rms[RhoU]|   rms[RhoV]|   rms[RhoE]|          CL|          CD|
+-------------------------------------------------------------------------------------------------------+
|         171|           0|   -2.012796|    0.699866|    0.570682|    3.392170|    1.792577|    0.162377|
|         172|           0|   -2.014888|    0.688602|    0.559552|    3.391373|    1.784691|    0.161533|
|         173|           0|   -2.016259|    0.675291|    0.545888|    3.392870|    1.776822|    0.160753|
|         174|           0|   -2.017151|    0.660018|    0.529748|    3.396034|    1.769104|    0.160051|
|         175|           0|   -2.017976|    0.642975|    0.511316|    3.400111|    1.761661|    0.159438|
|         176|           0|   -2.019192|    0.624313|    0.490931|    3.404252|    1.754614|    0.158928|
|         177|           0|   -2.020840|    0.604082|    0.469045|    3.408037|    1.748067|    0.158526|
|         178|           0|   -2.023301|    0.582615|    0.446332|    3.410900|    1.742127|    0.158241|
|         179|           0|   -2.026835|    0.560579|    0.423573|    3.412425|    1.736879|    0.158077|
|         180|           0|   -2.031359|    0.538469|    0.401899|    3.412455|    1.732385|    0.158032|
+-----------------------------------------------------------------------+
|        File Writing Summary       |              Filename             |
+-----------------------------------------------------------------------+
|SU2 restart                        |solution_flow.dat                  |
|Paraview                           |flow.vtu                           |
|Paraview surface                   |surface_flow.vtu                   |
+-----------------------------------------------------------------------+

Writing the forces breakdown file (forces_breakdown.dat).
+-------------------------------------------------------------------------------------------------------+
|  Inner_Iter|   Time_Iter|    rms[Rho]|   rms[RhoU]|   rms[RhoV]|   rms[RhoE]|          CL|          CD|
+-------------------------------------------------------------------------------------------------------+
|         181|           0|   -2.036967|    0.516991|    0.382451|    3.410792|    1.728716|    0.158108|
|         182|           0|   -2.043813|    0.496875|    0.366405|    3.407168|    1.725910|    0.158300|
|         183|           0|   -2.051840|    0.478938|    0.354776|    3.401618|    1.723991|    0.158600|
|         184|           0|   -2.060917|    0.464018|    0.347976|    3.394195|    1.722975|    0.159000|
|         185|           0|   -2.070844|    0.452690|    0.346033|    3.385034|    1.722860|    0.159489|
|         186|           0|   -2.081345|    0.445338|    0.348434|    3.374433|    1.723632|    0.160056|
|         187|           0|   -2.092096|    0.441856|    0.354198|    3.362656|    1.725263|    0.160686|
|         188|           0|   -2.103130|    0.441823|    0.362079|    3.349654|    1.727712|    0.161366|
|         189|           0|   -2.114139|    0.444644|    0.371099|    3.335805|    1.730931|    0.162080|
|         190|           0|   -2.124688|    0.449737|    0.380284|    3.321670|    1.734863|    0.162814|
+-----------------------------------------------------------------------+
|        File Writing Summary       |              Filename             |
+-----------------------------------------------------------------------+
|SU2 restart                        |solution_flow.dat                  |
|Paraview                           |flow.vtu                           |
|Paraview surface                   |surface_flow.vtu                   |
+-----------------------------------------------------------------------+

Writing the forces breakdown file (forces_breakdown.dat).
+-------------------------------------------------------------------------------------------------------+
|  Inner_Iter|   Time_Iter|    rms[Rho]|   rms[RhoU]|   rms[RhoV]|   rms[RhoE]|          CL|          CD|
+-------------------------------------------------------------------------------------------------------+
|         191|           0|   -2.134687|    0.456116|    0.388711|    3.307390|    1.739439|    0.163553|
|         192|           0|   -2.144083|    0.462960|    0.395907|    3.293259|    1.744588|    0.164283|
|         193|           0|   -2.152628|    0.469603|    0.401434|    3.279788|    1.750228|    0.164988|
|         194|           0|   -2.160153|    0.475552|    0.405021|    3.267425|    1.756277|    0.165657|
|         195|           0|   -2.166666|    0.480398|    0.406472|    3.256474|    1.762641|    0.166274|
|         196|           0|   -2.172336|    0.483841|    0.405626|    3.247072|    1.769227|    0.166828|
|         197|           0|   -2.177018|    0.485622|    0.402455|    3.239655|    1.775942|    0.167308|
|         198|           0|   -2.180853|    0.485624|    0.396927|    3.234244|    1.782689|    0.167702|
|         199|           0|   -2.184090|    0.483860|    0.389085|    3.230659|    1.789375|    0.168003|
|         200|           0|   -2.186826|    0.480292|    0.379011|    3.228746|    1.795912|    0.168205|
+-----------------------------------------------------------------------+
|        File Writing Summary       |              Filename             |
+-----------------------------------------------------------------------+
|SU2 restart                        |solution_flow.dat                  |
|Paraview                           |flow.vtu                           |
|Paraview surface                   |surface_flow.vtu                   |
+-----------------------------------------------------------------------+

Writing the forces breakdown file (forces_breakdown.dat).
+-------------------------------------------------------------------------------------------------------+
|  Inner_Iter|   Time_Iter|    rms[Rho]|   rms[RhoU]|   rms[RhoV]|   rms[RhoE]|          CL|          CD|
+-------------------------------------------------------------------------------------------------------+
|         201|           0|   -2.189244|    0.474972|    0.366668|    3.228213|    1.802216|    0.168300|
|         202|           0|   -2.191633|    0.468044|    0.352297|    3.228596|    1.808208|    0.168287|
|         203|           0|   -2.194226|    0.459622|    0.336129|    3.229409|    1.813814|    0.168163|
|         204|           0|   -2.197343|    0.449880|    0.318419|    3.230122|    1.818969|    0.167930|
|         205|           0|   -2.200972|    0.438976|    0.299565|    3.230580|    1.823612|    0.167588|
|         206|           0|   -2.205214|    0.427227|    0.279937|    3.230451|    1.827698|    0.167141|
|         207|           0|   -2.210278|    0.415079|    0.260231|    3.229357|    1.831181|    0.166594|
|         208|           0|   -2.216270|    0.402900|    0.241177|    3.227055|    1.834029|    0.165954|
|         209|           0|   -2.223162|    0.391118|    0.223624|    3.223448|    1.836224|    0.165229|
|         210|           0|   -2.231137|    0.380186|    0.208558|    3.218193|    1.837755|    0.164430|
+-----------------------------------------------------------------------+
|        File Writing Summary       |              Filename             |
+-----------------------------------------------------------------------+
|SU2 restart                        |solution_flow.dat                  |
|Paraview                           |flow.vtu                           |
|Paraview surface                   |surface_flow.vtu                   |
+-----------------------------------------------------------------------+

Writing the forces breakdown file (forces_breakdown.dat).
+-------------------------------------------------------------------------------------------------------+
|  Inner_Iter|   Time_Iter|    rms[Rho]|   rms[RhoU]|   rms[RhoV]|   rms[RhoE]|          CL|          CD|
+-------------------------------------------------------------------------------------------------------+
|         211|           0|   -2.240136|    0.370359|    0.196735|    3.211262|    1.838621|    0.163565|
|         212|           0|   -2.250097|    0.361908|    0.188626|    3.202617|    1.838829|    0.162648|
|         213|           0|   -2.260808|    0.354956|    0.184322|    3.192400|    1.838399|    0.161690|
|         214|           0|   -2.272204|    0.349576|    0.183578|    3.180595|    1.837360|    0.160707|
|         215|           0|   -2.284150|    0.345685|    0.185773|    3.167328|    1.835751|    0.159711|
|         216|           0|   -2.296339|    0.343096|    0.190041|    3.152836|    1.833613|    0.158717|
|         217|           0|   -2.308579|    0.341443|    0.195514|    3.137271|    1.831002|    0.157740|
|         218|           0|   -2.320480|    0.340242|    0.201358|    3.121131|    1.827973|    0.156792|
|         219|           0|   -2.331761|    0.339343|    0.206876|    3.104799|    1.824586|    0.155888|
|         220|           0|   -2.342241|    0.338417|    0.211487|    3.088710|    1.820911|    0.155040|
+-----------------------------------------------------------------------+
|        File Writing Summary       |              Filename             |
+-----------------------------------------------------------------------+
|SU2 restart                        |solution_flow.dat                  |
|Paraview                           |flow.vtu                           |
|Paraview surface                   |surface_flow.vtu                   |
+-----------------------------------------------------------------------+

Writing the forces breakdown file (forces_breakdown.dat).
+-------------------------------------------------------------------------------------------------------+
|  Inner_Iter|   Time_Iter|    rms[Rho]|   rms[RhoU]|   rms[RhoV]|   rms[RhoE]|          CL|          CD|
+-------------------------------------------------------------------------------------------------------+
|         221|           0|   -2.351786|    0.337123|    0.214690|    3.073294|    1.817019|    0.154262|
|         222|           0|   -2.360236|    0.335157|    0.216089|    3.059059|    1.812980|    0.153564|
|         223|           0|   -2.367467|    0.332236|    0.215645|    3.046587|    1.808861|    0.152953|
|         224|           0|   -2.373601|    0.328196|    0.213192|    3.036103|    1.804732|    0.152441|
|         225|           0|   -2.378720|    0.322874|    0.208577|    3.027836|    1.800657|    0.152030|
|         226|           0|   -2.382658|    0.316129|    0.201715|    3.022262|    1.796704|    0.151728|
|         227|           0|   -2.385779|    0.307737|    0.192480|    3.019035|    1.792933|    0.151537|
|         228|           0|   -2.388258|    0.297665|    0.181000|    3.017906|    1.789403|    0.151461|
|         229|           0|   -2.390309|    0.285899|    0.167385|    3.018481|    1.786167|    0.151497|
|         230|           0|   -2.392262|    0.272437|    0.151806|    3.020121|    1.783276|    0.151648|
+-----------------------------------------------------------------------+
|        File Writing Summary       |              Filename             |
+-----------------------------------------------------------------------+
|SU2 restart                        |solution_flow.dat                  |
|Paraview                           |flow.vtu                           |
|Paraview surface                   |surface_flow.vtu                   |
+-----------------------------------------------------------------------+

Writing the forces breakdown file (forces_breakdown.dat).
+-------------------------------------------------------------------------------------------------------+
|  Inner_Iter|   Time_Iter|    rms[Rho]|   rms[RhoU]|   rms[RhoV]|   rms[RhoE]|          CL|          CD|
+-------------------------------------------------------------------------------------------------------+
|         231|           0|   -2.394271|    0.257313|    0.134545|    3.022450|    1.780769|    0.151908|
|         232|           0|   -2.396638|    0.240673|    0.115942|    3.024858|    1.778684|    0.152274|
|         233|           0|   -2.399440|    0.222679|    0.096552|    3.027015|    1.777051|    0.152740|
|         234|           0|   -2.402864|    0.203697|    0.077002|    3.028493|    1.775892|    0.153300|
|         235|           0|   -2.407031|    0.184020|    0.058032|    3.028956|    1.775222|    0.153946|
|         236|           0|   -2.412142|    0.164139|    0.040538|    3.028036|    1.775050|    0.154668|
|         237|           0|   -2.418179|    0.144637|    0.025473|    3.025691|    1.775375|    0.155455|
|         238|           0|   -2.425135|    0.126148|    0.013645|    3.021824|    1.776194|    0.156298|
|         239|           0|   -2.432844|    0.109363|    0.005642|    3.016528|    1.777492|    0.157184|
|         240|           0|   -2.441244|    0.094915|    0.001734|    3.009772|    1.779252|    0.158102|
+-----------------------------------------------------------------------+
|        File Writing Summary       |              Filename             |
+-----------------------------------------------------------------------+
|SU2 restart                        |solution_flow.dat                  |
|Paraview                           |flow.vtu                           |
|Paraview surface                   |surface_flow.vtu                   |
+-----------------------------------------------------------------------+

Writing the forces breakdown file (forces_breakdown.dat).
+-------------------------------------------------------------------------------------------------------+
|  Inner_Iter|   Time_Iter|    rms[Rho]|   rms[RhoU]|   rms[RhoV]|   rms[RhoE]|          CL|          CD|
+-------------------------------------------------------------------------------------------------------+
|         241|           0|   -2.450134|    0.083409|    0.001719|    3.001722|    1.781446|    0.159039|
|         242|           0|   -2.459466|    0.075077|    0.005112|    2.992362|    1.784047|    0.159982|
|         243|           0|   -2.469057|    0.070130|    0.011161|    2.981882|    1.787015|    0.160919|
|         244|           0|   -2.478809|    0.068337|    0.019059|    2.970357|    1.790314|    0.161837|
|         245|           0|   -2.488645|    0.069196|    0.027963|    2.957859|    1.793896|    0.162725|
|         246|           0|   -2.498206|    0.072114|    0.037057|    2.944879|    1.797719|    0.163571|
|         247|           0|   -2.507247|    0.076431|    0.045687|    2.931841|    1.801729|    0.164364|
|         248|           0|   -2.515855|    0.081501|    0.053315|    2.918801|    1.805878|    0.165095|
|         249|           0|   -2.523802|    0.086645|    0.059576|    2.906205|    1.810112|    0.165754|
|         250|           0|   -2.530934|    0.091371|    0.064271|    2.894494|    1.814383|    0.166335|
+-----------------------------------------------------------------------+
|        File Writing Summary       |              Filename             |
+-----------------------------------------------------------------------+
|SU2 restart                        |solution_flow.dat                  |
|Paraview                           |flow.vtu                           |
|Paraview surface                   |surface_flow.vtu                   |
+-----------------------------------------------------------------------+

Writing the forces breakdown file (forces_breakdown.dat).
+-------------------------------------------------------------------------------------------------------+
|  Inner_Iter|   Time_Iter|    rms[Rho]|   rms[RhoU]|   rms[RhoV]|   rms[RhoE]|          CL|          CD|
+-------------------------------------------------------------------------------------------------------+
|         251|           0|   -2.537213|    0.095324|    0.067255|    2.883999|    1.818636|    0.166830|
|         252|           0|   -2.542705|    0.098291|    0.068424|    2.874948|    1.822823|    0.167233|
|         253|           0|   -2.547443|    0.100036|    0.067739|    2.867551|    1.826896|    0.167541|
|         254|           0|   -2.551497|    0.100323|    0.065198|    2.861889|    1.830809|    0.167749|
|         255|           0|   -2.555193|    0.099156|    0.060867|    2.857675|    1.834518|    0.167857|
|         256|           0|   -2.558713|    0.096596|    0.054825|    2.854732|    1.837987|    0.167865|
|         257|           0|   -2.562071|    0.092658|    0.047233|    2.853010|    1.841179|    0.167772|
|         258|           0|   -2.565572|    0.087352|    0.038218|    2.851977|    1.844065|    0.167582|
|         259|           0|   -2.569281|    0.080866|    0.028043|    2.851464|    1.846619|    0.167298|
|         260|           0|   -2.573409|    0.073363|    0.016990|    2.851024|    1.848823|    0.166926|
+-----------------------------------------------------------------------+
|        File Writing Summary       |              Filename             |
+-----------------------------------------------------------------------+
|SU2 restart                        |solution_flow.dat                  |
|Paraview                           |flow.vtu                           |
|Paraview surface                   |surface_flow.vtu                   |
+-----------------------------------------------------------------------+

Writing the forces breakdown file (forces_breakdown.dat).
+-------------------------------------------------------------------------------------------------------+
|  Inner_Iter|   Time_Iter|    rms[Rho]|   rms[RhoU]|   rms[RhoV]|   rms[RhoE]|          CL|          CD|
+-------------------------------------------------------------------------------------------------------+
|         261|           0|   -2.578143|    0.065043|    0.005350|    2.850258|    1.850660|    0.166470|
|         262|           0|   -2.583590|    0.056160|   -0.006562|    2.848881|    1.852122|    0.165939|
|         263|           0|   -2.589895|    0.047022|   -0.018366|    2.846577|    1.853204|    0.165339|
|         264|           0|   -2.597173|    0.037942|   -0.029661|    2.843072|    1.853908|    0.164681|
|         265|           0|   -2.605495|    0.029312|   -0.040107|    2.838148|    1.854239|    0.163973|
|         266|           0|   -2.614878|    0.021404|   -0.049335|    2.831687|    1.854209|    0.163224|
|         267|           0|   -2.625097|    0.014372|   -0.057130|    2.823843|    1.853833|    0.162446|
|         268|           0|   -2.636208|    0.008412|   -0.063358|    2.814456|    1.853133|    0.161649|
|         269|           0|   -2.648092|    0.003569|   -0.068015|    2.803549|    1.852132|    0.160844|
|         270|           0|   -2.660662|   -0.000170|   -0.071257|    2.791136|    1.850858|    0.160040|
+-----------------------------------------------------------------------+
|        File Writing Summary       |              Filename             |
+-----------------------------------------------------------------------+
|SU2 restart                        |solution_flow.dat                  |
|Paraview                           |flow.vtu                           |
|Paraview surface                   |surface_flow.vtu                   |
+-----------------------------------------------------------------------+

Writing the forces breakdown file (forces_breakdown.dat).
+-------------------------------------------------------------------------------------------------------+
|  Inner_Iter|   Time_Iter|    rms[Rho]|   rms[RhoU]|   rms[RhoV]|   rms[RhoE]|          CL|          CD|
+-------------------------------------------------------------------------------------------------------+
|         271|           0|   -2.673628|   -0.002865|   -0.073260|    2.777475|    1.849341|    0.159249|
|         272|           0|   -2.686778|   -0.004686|   -0.074309|    2.762712|    1.847614|    0.158481|
|         273|           0|   -2.699871|   -0.005835|   -0.074750|    2.747079|    1.845712|    0.157744|
|         274|           0|   -2.712753|   -0.006609|   -0.074930|    2.730677|    1.843673|    0.157049|
|         275|           0|   -2.724996|   -0.007292|   -0.075197|    2.714117|    1.841535|    0.156404|
|         276|           0|   -2.736524|   -0.008147|   -0.075835|    2.697629|    1.839337|    0.155818|
|         277|           0|   -2.747180|   -0.009402|   -0.077087|    2.681599|    1.837116|    0.155295|
|         278|           0|   -2.756773|   -0.011293|   -0.079161|    2.666531|    1.834910|    0.154843|
|         279|           0|   -2.765192|   -0.014016|   -0.082209|    2.652886|    1.832754|    0.154465|
|         280|           0|   -2.772392|   -0.017728|   -0.086359|    2.641083|    1.830686|    0.154167|
+-----------------------------------------------------------------------+
|        File Writing Summary       |              Filename             |
+-----------------------------------------------------------------------+
|SU2 restart                        |solution_flow.dat                  |
|Paraview                           |flow.vtu                           |
|Paraview surface                   |surface_flow.vtu                   |
+-----------------------------------------------------------------------+

Writing the forces breakdown file (forces_breakdown.dat).
+-------------------------------------------------------------------------------------------------------+
|  Inner_Iter|   Time_Iter|    rms[Rho]|   rms[RhoU]|   rms[RhoV]|   rms[RhoE]|          CL|          CD|
+-------------------------------------------------------------------------------------------------------+
|         281|           0|   -2.778417|   -0.022582|   -0.091648|    2.631404|    1.828736|    0.153950|
|         282|           0|   -2.783369|   -0.028684|   -0.098057|    2.624014|    1.826938|    0.153816|
|         283|           0|   -2.787405|   -0.036118|   -0.105563|    2.618909|    1.825316|    0.153766|
|         284|           0|   -2.790710|   -0.044912|   -0.114074|    2.615914|    1.823898|    0.153799|
|         285|           0|   -2.793522|   -0.055057|   -0.123464|    2.614688|    1.822702|    0.153913|
|         286|           0|   -2.795997|   -0.066736|   -0.133520|    2.614860|    1.821750|    0.154107|
|         287|           0|   -2.798439|   -0.079643|   -0.144041|    2.615908|    1.821052|    0.154374|
|         288|           0|   -2.801024|   -0.093648|   -0.154714|    2.617401|    1.820622|    0.154713|
|         289|           0|   -2.803899|   -0.108613|   -0.165239|    2.618943|    1.820462|    0.155117|
|         290|           0|   -2.807238|   -0.124335|   -0.175280|    2.620129|    1.820578|    0.155580|
+-----------------------------------------------------------------------+
|        File Writing Summary       |              Filename             |
+-----------------------------------------------------------------------+
|SU2 restart                        |solution_flow.dat                  |
|Paraview                           |flow.vtu                           |
|Paraview surface                   |surface_flow.vtu                   |
+-----------------------------------------------------------------------+

Writing the forces breakdown file (forces_breakdown.dat).
+-------------------------------------------------------------------------------------------------------+
|  Inner_Iter|   Time_Iter|    rms[Rho]|   rms[RhoU]|   rms[RhoV]|   rms[RhoE]|          CL|          CD|
+-------------------------------------------------------------------------------------------------------+
|         291|           0|   -2.811163|   -0.140577|   -0.184472|    2.620643|    1.820968|    0.156094|
|         292|           0|   -2.815787|   -0.157036|   -0.192464|    2.620202|    1.821627|    0.156654|
|         293|           0|   -2.821137|   -0.173342|   -0.198990|    2.618644|    1.822546|    0.157250|
|         294|           0|   -2.827176|   -0.189091|   -0.203840|    2.615912|    1.823715|    0.157876|
|         295|           0|   -2.833903|   -0.203863|   -0.206917|    2.611899|    1.825117|    0.158522|
|         296|           0|   -2.841278|   -0.217238|   -0.208235|    2.606583|    1.826737|    0.159181|
|         297|           0|   -2.849219|   -0.228834|   -0.207907|    2.599993|    1.828551|    0.159843|
|         298|           0|   -2.857574|   -0.238387|   -0.206160|    2.592240|    1.830540|    0.160502|
|         299|           0|   -2.866255|   -0.245741|   -0.203280|    2.583384|    1.832680|    0.161147|
|         300|           0|   -2.875143|   -0.250852|   -0.199582|    2.573551|    1.834944|    0.161772|
+-----------------------------------------------------------------------+
|        File Writing Summary       |              Filename             |
+-----------------------------------------------------------------------+
|SU2 restart                        |solution_flow.dat                  |
|Paraview                           |flow.vtu                           |
|Paraview surface                   |surface_flow.vtu                   |
+-----------------------------------------------------------------------+

Writing the forces breakdown file (forces_breakdown.dat).
+-------------------------------------------------------------------------------------------------------+
|  Inner_Iter|   Time_Iter|    rms[Rho]|   rms[RhoU]|   rms[RhoV]|   rms[RhoE]|          CL|          CD|
+-------------------------------------------------------------------------------------------------------+
|         301|           0|   -2.884060|   -0.253858|   -0.195393|    2.562951|    1.837305|    0.162369|
|         302|           0|   -2.892845|   -0.254965|   -0.191025|    2.551795|    1.839738|    0.162932|
|         303|           0|   -2.901439|   -0.254631|   -0.186769|    2.540222|    1.842214|    0.163453|
|         304|           0|   -2.909674|   -0.253246|   -0.182870|    2.528548|    1.844707|    0.163929|
|         305|           0|   -2.917355|   -0.251230|   -0.179509|    2.517177|    1.847189|    0.164352|
|         306|           0|   -2.924463|   -0.248951|   -0.176825|    2.506312|    1.849634|    0.164720|
|         307|           0|   -2.931036|   -0.246728|   -0.174921|    2.496132|    1.852016|    0.165029|
|         308|           0|   -2.937080|   -0.244829|   -0.173873|    2.486860|    1.854312|    0.165276|
|         309|           0|   -2.942658|   -0.243462|   -0.173712|    2.478634|    1.856500|    0.165460|
|         310|           0|   -2.947854|   -0.242772|   -0.174441|    2.471518|    1.858560|    0.165579|
+-----------------------------------------------------------------------+
|        File Writing Summary       |              Filename             |
+-----------------------------------------------------------------------+
|SU2 restart                        |solution_flow.dat                  |
|Paraview                           |flow.vtu                           |
|Paraview surface                   |surface_flow.vtu                   |
+-----------------------------------------------------------------------+

Writing the forces breakdown file (forces_breakdown.dat).
+-------------------------------------------------------------------------------------------------------+
|  Inner_Iter|   Time_Iter|    rms[Rho]|   rms[RhoU]|   rms[RhoV]|   rms[RhoE]|          CL|          CD|
+-------------------------------------------------------------------------------------------------------+
|         311|           0|   -2.952849|   -0.242852|   -0.176033|    2.465392|    1.860474|    0.165634|
|         312|           0|   -2.957711|   -0.243773|   -0.178445|    2.460248|    1.862228|    0.165625|
|         313|           0|   -2.962610|   -0.245517|   -0.181609|    2.455917|    1.863805|    0.165554|
|         314|           0|   -2.967677|   -0.248036|   -0.185436|    2.452203|    1.865200|    0.165423|
|         315|           0|   -2.973096|   -0.251256|   -0.189826|    2.448826|    1.866401|    0.165236|
|         316|           0|   -2.978970|   -0.255113|   -0.194670|    2.445560|    1.867406|    0.164996|
|         317|           0|   -2.985410|   -0.259503|   -0.199858|    2.442150|    1.868211|    0.164708|
|         318|           0|   -2.992579|   -0.264296|   -0.205257|    2.438276|    1.868818|    0.164376|
|         319|           0|   -3.000487|   -0.269345|   -0.210758|    2.433811|    1.869228|    0.164005|
|         320|           0|   -3.009179|   -0.274522|   -0.216269|    2.428582|    1.869448|    0.163602|
+-----------------------------------------------------------------------+
|        File Writing Summary       |              Filename             |
+-----------------------------------------------------------------------+
|SU2 restart                        |solution_flow.dat                  |
|Paraview                           |flow.vtu                           |
|Paraview surface                   |surface_flow.vtu                   |
+-----------------------------------------------------------------------+

Writing the forces breakdown file (forces_breakdown.dat).
+-------------------------------------------------------------------------------------------------------+
|  Inner_Iter|   Time_Iter|    rms[Rho]|   rms[RhoU]|   rms[RhoV]|   rms[RhoE]|          CL|          CD|
+-------------------------------------------------------------------------------------------------------+
|         321|           0|   -3.018704|   -0.279667|   -0.221695|    2.422404|    1.869484|    0.163172|
|         322|           0|   -3.029053|   -0.284649|   -0.226960|    2.415168|    1.869347|    0.162722|
|         323|           0|   -3.040202|   -0.289350|   -0.232005|    2.406790|    1.869049|    0.162257|
|         324|           0|   -3.052122|   -0.293694|   -0.236798|    2.397172|    1.868605|    0.161786|
|         325|           0|   -3.064695|   -0.297632|   -0.241337|    2.386356|    1.868027|    0.161312|
|         326|           0|   -3.077874|   -0.301162|   -0.245623|    2.374289|    1.867336|    0.160844|
|         327|           0|   -3.091401|   -0.304285|   -0.249678|    2.361195|    1.866545|    0.160386|
|         328|           0|   -3.105175|   -0.307056|   -0.253551|    2.347091|    1.865677|    0.159945|
|         329|           0|   -3.119193|   -0.309582|   -0.257306|    2.331834|    1.864748|    0.159525|
|         330|           0|   -3.133132|   -0.311937|   -0.261016|    2.315790|    1.863778|    0.159134|
+-----------------------------------------------------------------------+
|        File Writing Summary       |              Filename             |
+-----------------------------------------------------------------------+
|SU2 restart                        |solution_flow.dat                  |
|Paraview                           |flow.vtu                           |
|Paraview surface                   |surface_flow.vtu                   |
+-----------------------------------------------------------------------+

Writing the forces breakdown file (forces_breakdown.dat).
+-------------------------------------------------------------------------------------------------------+
|  Inner_Iter|   Time_Iter|    rms[Rho]|   rms[RhoU]|   rms[RhoV]|   rms[RhoE]|          CL|          CD|
+-------------------------------------------------------------------------------------------------------+
|         331|           0|   -3.146761|   -0.314220|   -0.264744|    2.299235|    1.862786|    0.158773|
|         332|           0|   -3.159919|   -0.316554|   -0.268562|    2.282399|    1.861792|    0.158448|
|         333|           0|   -3.172295|   -0.319023|   -0.272521|    2.265732|    1.860813|    0.158162|
|         334|           0|   -3.183725|   -0.321720|   -0.276670|    2.249594|    1.859868|    0.157919|
|         335|           0|   -3.194086|   -0.324781|   -0.281043|    2.234344|    1.858972|    0.157718|
|         336|           0|   -3.203284|   -0.328347|   -0.285663|    2.220353|    1.858142|    0.157565|
|         337|           0|   -3.211270|   -0.332539|   -0.290534|    2.207973|    1.857392|    0.157458|
|         338|           0|   -3.218027|   -0.337459|   -0.295645|    2.197533|    1.856734|    0.157399|
|         339|           0|   -3.223642|   -0.343180|   -0.300977|    2.189192|    1.856179|    0.157387|
|         340|           0|   -3.228272|   -0.349702|   -0.306483|    2.182969|    1.855738|    0.157422|
+-----------------------------------------------------------------------+
|        File Writing Summary       |              Filename             |
+-----------------------------------------------------------------------+
|SU2 restart                        |solution_flow.dat                  |
|Paraview                           |flow.vtu                           |
|Paraview surface                   |surface_flow.vtu                   |
+-----------------------------------------------------------------------+

Writing the forces breakdown file (forces_breakdown.dat).
+-------------------------------------------------------------------------------------------------------+
|  Inner_Iter|   Time_Iter|    rms[Rho]|   rms[RhoU]|   rms[RhoV]|   rms[RhoE]|          CL|          CD|
+-------------------------------------------------------------------------------------------------------+
|         341|           0|   -3.232019|   -0.357014|   -0.312093|    2.178847|    1.855417|    0.157501|
|         342|           0|   -3.235101|   -0.365040|   -0.317717|    2.176587|    1.855223|    0.157624|
|         343|           0|   -3.237747|   -0.373696|   -0.323274|    2.175838|    1.855157|    0.157787|
|         344|           0|   -3.240172|   -0.382874|   -0.328677|    2.176197|    1.855227|    0.157989|
|         345|           0|   -3.242652|   -0.392405|   -0.333841|    2.177164|    1.855427|    0.158225|
|         346|           0|   -3.245751|   -0.401939|   -0.338674|    2.177948|    1.855760|    0.158492|
|         347|           0|   -3.248855|   -0.411592|   -0.343067|    2.178982|    1.856220|    0.158786|
|         348|           0|   -3.252209|   -0.421232|   -0.346984|    2.179785|    1.856805|    0.159103|
|         349|           0|   -3.256025|   -0.430829|   -0.350410|    2.179909|    1.857505|    0.159438|
[...]
|         905|           0|   -4.470717|   -1.475619|   -1.867884|    1.010574|    1.920218|    0.163401|
|         906|           0|   -4.464152|   -1.574647|   -1.914519|    0.976423|    1.920224|    0.163402|
|         907|           0|   -4.464461|   -1.666400|   -1.950079|    0.961319|    1.920229|    0.163401|
|         908|           0|   -4.482440|   -1.746371|   -1.975130|    0.940290|    1.920235|    0.163402|
|         909|           0|   -4.517732|   -1.809087|   -1.991222|    0.906324|    1.920240|    0.163402|
|         910|           0|   -4.567307|   -1.852349|   -2.001338|    0.860136|    1.920246|    0.163402|
+-----------------------------------------------------------------------+
|        File Writing Summary       |              Filename             |
+-----------------------------------------------------------------------+
|SU2 restart                        |solution_flow.dat                  |
|Paraview                           |flow.vtu                           |
|Paraview surface                   |surface_flow.vtu                   |
+-----------------------------------------------------------------------+

Writing the forces breakdown file (forces_breakdown.dat).
+-------------------------------------------------------------------------------------------------------+
|  Inner_Iter|   Time_Iter|    rms[Rho]|   rms[RhoU]|   rms[RhoV]|   rms[RhoE]|          CL|          CD|
+-------------------------------------------------------------------------------------------------------+
|         911|           0|   -4.627527|   -1.879914|   -2.008570|    0.805040|    1.920251|    0.163402|
|         912|           0|   -4.520870|   -2.041221|   -2.008068|    0.953665|    1.920257|    0.163402|
|         913|           0|   -4.408888|   -1.676796|   -1.959571|    1.111000|    1.920262|    0.163403|
|         914|           0|   -4.329367|   -1.438613|   -1.878414|    1.221517|    1.920268|    0.163403|
|         915|           0|   -4.292161|   -1.306323|   -1.803062|    1.280052|    1.920273|    0.163403|
|         916|           0|   -4.298029|   -1.243163|   -1.755385|    1.289002|    1.920279|    0.163403|
|         917|           0|   -4.338612|   -1.231044|   -1.741464|    1.254551|    1.920283|    0.163403|
|         918|           0|   -4.395886|   -1.259140|   -1.761394|    1.185480|    1.920289|    0.163403|
|         919|           0|   -4.442795|   -1.322520|   -1.812749|    1.094955|    1.920294|    0.163403|
|         920|           0|   -4.452213|   -1.422929|   -1.887070|    1.015096|    1.920300|    0.163403|
+-----------------------------------------------------------------------+
|        File Writing Summary       |              Filename             |
+-----------------------------------------------------------------------+
|SU2 restart                        |solution_flow.dat                  |
|Paraview                           |flow.vtu                           |
|Paraview surface                   |surface_flow.vtu                   |
+-----------------------------------------------------------------------+

Writing the forces breakdown file (forces_breakdown.dat).
+-------------------------------------------------------------------------------------------------------+
|  Inner_Iter|   Time_Iter|    rms[Rho]|   rms[RhoU]|   rms[RhoV]|   rms[RhoE]|          CL|          CD|
+-------------------------------------------------------------------------------------------------------+
|         921|           0|   -4.417571|   -1.571688|   -1.958587|    1.005874|    1.920305|    0.163403|
|         922|           0|   -4.357928|   -1.786172|   -1.983929|    1.078142|    1.920310|    0.163404|
|         923|           0|   -4.289341|   -1.860959|   -1.945402|    1.182318|    1.920315|    0.163404|
|         924|           0|   -4.213828|   -1.566971|   -1.865260|    1.293934|    1.920321|    0.163404|
|         925|           0|   -4.127379|   -1.301712|   -1.761287|    1.411314|    1.920325|    0.163404|
|         926|           0|   -4.053033|   -1.114774|   -1.658148|    1.509272|    1.920330|    0.163404|
|         927|           0|   -4.247264|   -1.222311|   -1.724801|    1.329169|    1.920336|    0.163405|
|         928|           0|   -4.400717|   -1.330229|   -1.799004|    1.161215|    1.920341|    0.163405|
|         929|           0|   -4.462562|   -1.435985|   -1.867066|    1.041979|    1.920345|    0.163405|
|         930|           0|   -4.463319|   -1.537808|   -1.924681|    0.989070|    1.920350|    0.163405|
+-----------------------------------------------------------------------+
|        File Writing Summary       |              Filename             |
+-----------------------------------------------------------------------+
|SU2 restart                        |solution_flow.dat                  |
|Paraview                           |flow.vtu                           |
|Paraview surface                   |surface_flow.vtu                   |
+-----------------------------------------------------------------------+

Writing the forces breakdown file (forces_breakdown.dat).
+-------------------------------------------------------------------------------------------------------+
|  Inner_Iter|   Time_Iter|    rms[Rho]|   rms[RhoU]|   rms[RhoV]|   rms[RhoE]|          CL|          CD|
+-------------------------------------------------------------------------------------------------------+
|         931|           0|   -4.458966|   -1.633850|   -1.971008|    0.970574|    1.920355|    0.163405|
|         932|           0|   -4.470420|   -1.720518|   -2.005676|    0.952698|    1.920360|    0.163405|
|         933|           0|   -4.499434|   -1.792075|   -2.029010|    0.923768|    1.920364|    0.163405|
|         934|           0|   -4.544307|   -1.844199|   -2.043502|    0.881467|    1.920369|    0.163406|
|         935|           0|   -4.600997|   -1.877990|   -2.052784|    0.829171|    1.920374|    0.163406|
|         936|           0|   -4.565781|   -2.070600|   -2.059474|    0.890239|    1.920379|    0.163406|
|         937|           0|   -4.449732|   -1.811450|   -2.022316|    1.055278|    1.920383|    0.163406|
|         938|           0|   -4.356999|   -1.515437|   -1.936809|    1.183870|    1.920388|    0.163406|
|         939|           0|   -4.303850|   -1.349548|   -1.847261|    1.261331|    1.920392|    0.163406|
|         940|           0|   -4.294296|   -1.263196|   -1.783811|    1.288083|    1.920396|    0.163407|
+-----------------------------------------------------------------------+
|        File Writing Summary       |              Filename             |
+-----------------------------------------------------------------------+
|SU2 restart                        |solution_flow.dat                  |
|Paraview                           |flow.vtu                           |
|Paraview surface                   |surface_flow.vtu                   |
+-----------------------------------------------------------------------+

Writing the forces breakdown file (forces_breakdown.dat).
+-------------------------------------------------------------------------------------------------------+
|  Inner_Iter|   Time_Iter|    rms[Rho]|   rms[RhoU]|   rms[RhoV]|   rms[RhoE]|          CL|          CD|
+-------------------------------------------------------------------------------------------------------+
|         941|           0|   -4.323430|   -1.233443|   -1.755484|    1.269001|    1.920400|    0.163407|
|         942|           0|   -4.377104|   -1.247291|   -1.763000|    1.211805|    1.920405|    0.163407|
|         943|           0|   -4.431446|   -1.297613|   -1.804849|    1.127085|    1.920410|    0.163407|
|         944|           0|   -4.457078|   -1.383634|   -1.876349|    1.037242|    1.920414|    0.163408|
|         945|           0|   -4.437387|   -1.512861|   -1.960097|    0.995326|    1.920419|    0.163408|
|         946|           0|   -4.383947|   -1.704990|   -2.012946|    1.042675|    1.920424|    0.163408|
|         947|           0|   -4.317437|   -1.902238|   -1.994436|    1.140443|    1.920429|    0.163408|
|         948|           0|   -4.244597|   -1.684982|   -1.919191|    1.250415|    1.920434|    0.163408|
|         949|           0|   -4.162330|   -1.393548|   -1.815639|    1.365825|    1.920438|    0.163408|
|         950|           0|   -4.069206|   -1.165165|   -1.696348|    1.485664|    1.920443|    0.163408|
+-----------------------------------------------------------------------+
|        File Writing Summary       |              Filename             |
+-----------------------------------------------------------------------+
|SU2 restart                        |solution_flow.dat                  |
|Paraview                           |flow.vtu                           |
|Paraview surface                   |surface_flow.vtu                   |
+-----------------------------------------------------------------------+

Writing the forces breakdown file (forces_breakdown.dat).
+-------------------------------------------------------------------------------------------------------+
|  Inner_Iter|   Time_Iter|    rms[Rho]|   rms[RhoU]|   rms[RhoV]|   rms[RhoE]|          CL|          CD|
+-------------------------------------------------------------------------------------------------------+
|         951|           0|   -4.171272|   -1.179159|   -1.706948|    1.401329|    1.920448|    0.163408|
|         952|           0|   -4.350890|   -1.287190|   -1.782461|    1.223785|    1.920452|    0.163408|
|         953|           0|   -4.453354|   -1.394184|   -1.857583|    1.078684|    1.920456|    0.163408|
|         954|           0|   -4.470516|   -1.498063|   -1.924396|    0.999725|    1.920461|    0.163408|
|         955|           0|   -4.463039|   -1.597233|   -1.980624|    0.972666|    1.920465|    0.163409|
|         956|           0|   -4.466592|   -1.688951|   -2.025067|    0.957592|    1.920469|    0.163409|
|         957|           0|   -4.488184|   -1.768179|   -2.056918|    0.934177|    1.920473|    0.163409|
|         958|           0|   -4.526777|   -1.829367|   -2.077257|    0.897345|    1.920477|    0.163409|
|         959|           0|   -4.578761|   -1.870906|   -2.089664|    0.849037|    1.920481|    0.163409|
|         960|           0|   -4.612453|   -1.956115|   -2.099859|    0.825213|    1.920485|    0.163409|
+-----------------------------------------------------------------------+
|        File Writing Summary       |              Filename             |
+-----------------------------------------------------------------------+
|SU2 restart                        |solution_flow.dat                  |
|Paraview                           |flow.vtu                           |
|Paraview surface                   |surface_flow.vtu                   |
+-----------------------------------------------------------------------+

Writing the forces breakdown file (forces_breakdown.dat).
+-------------------------------------------------------------------------------------------------------+
|  Inner_Iter|   Time_Iter|    rms[Rho]|   rms[RhoU]|   rms[RhoV]|   rms[RhoE]|          CL|          CD|
+-------------------------------------------------------------------------------------------------------+
|         961|           0|   -4.496487|   -1.989436|   -2.083026|    0.989031|    1.920489|    0.163409|
|         962|           0|   -4.390224|   -1.618621|   -2.000558|    1.137484|    1.920493|    0.163410|
|         963|           0|   -4.319389|   -1.406127|   -1.897026|    1.236766|    1.920496|    0.163409|
|         964|           0|   -4.291778|   -1.290238|   -1.815295|    1.284246|    1.920500|    0.163410|
|         965|           0|   -4.306036|   -1.238923|   -1.769668|    1.283383|    1.920504|    0.163410|
|         966|           0|   -4.352032|   -1.235970|   -1.761803|    1.240811|    1.920508|    0.163410|
|         967|           0|   -4.409613|   -1.271719|   -1.790418|    1.165869|    1.920512|    0.163410|
|         968|           0|   -4.450630|   -1.342716|   -1.852969|    1.073709|    1.920515|    0.163410|
|         969|           0|   -4.450291|   -1.452556|   -1.939928|    1.003422|    1.920519|    0.163410|
|         970|           0|   -4.407820|   -1.616069|   -2.018135|    1.014367|    1.920523|    0.163410|
+-----------------------------------------------------------------------+
|        File Writing Summary       |              Filename             |
+-----------------------------------------------------------------------+
|SU2 restart                        |solution_flow.dat                  |
|Paraview                           |flow.vtu                           |
|Paraview surface                   |surface_flow.vtu                   |
+-----------------------------------------------------------------------+

Writing the forces breakdown file (forces_breakdown.dat).
+-------------------------------------------------------------------------------------------------------+
|  Inner_Iter|   Time_Iter|    rms[Rho]|   rms[RhoU]|   rms[RhoV]|   rms[RhoE]|          CL|          CD|
+-------------------------------------------------------------------------------------------------------+
|         971|           0|   -4.345334|   -1.844912|   -2.032035|    1.097592|    1.920526|    0.163410|
|         972|           0|   -4.275322|   -1.818315|   -1.971085|    1.204381|    1.920529|    0.163410|
|         973|           0|   -4.197660|   -1.507057|   -1.871472|    1.317314|    1.920532|    0.163410|
|         974|           0|   -4.108615|   -1.254033|   -1.753391|    1.435924|    1.920536|    0.163410|
|         975|           0|   -4.088929|   -1.134296|   -1.682845|    1.476757|    1.920539|    0.163410|
|         976|           0|   -4.281458|   -1.242150|   -1.755950|    1.296177|    1.920542|    0.163410|
|         977|           0|   -4.422229|   -1.350076|   -1.835844|    1.132898|    1.920545|    0.163410|
|         978|           0|   -4.468613|   -1.455696|   -1.910472|    1.025019|    1.920549|    0.163410|
|         979|           0|   -4.464530|   -1.557403|   -1.975812|    0.981618|    1.920552|    0.163410|
|         980|           0|   -4.461843|   -1.653163|   -2.030135|    0.965312|    1.920555|    0.163411|
+-----------------------------------------------------------------------+
|        File Writing Summary       |              Filename             |
+-----------------------------------------------------------------------+
|SU2 restart                        |solution_flow.dat                  |
|Paraview                           |flow.vtu                           |
|Paraview surface                   |surface_flow.vtu                   |
+-----------------------------------------------------------------------+

Writing the forces breakdown file (forces_breakdown.dat).
+-------------------------------------------------------------------------------------------------------+
|  Inner_Iter|   Time_Iter|    rms[Rho]|   rms[RhoU]|   rms[RhoV]|   rms[RhoE]|          CL|          CD|
+-------------------------------------------------------------------------------------------------------+
|         981|           0|   -4.476116|   -1.738969|   -2.071769|    0.946294|    1.920558|    0.163411|
|         982|           0|   -4.508162|   -1.808873|   -2.099988|    0.914858|    1.920561|    0.163411|
|         983|           0|   -4.554979|   -1.858932|   -2.117215|    0.871016|    1.920564|    0.163411|
|         984|           0|   -4.613266|   -1.891241|   -2.128159|    0.817394|    1.920567|    0.163411|
|         985|           0|   -4.544957|   -2.108237|   -2.130379|    0.919631|    1.920570|    0.163411|
|         986|           0|   -4.430306|   -1.750630|   -2.063435|    1.082053|    1.920573|    0.163411|
|         987|           0|   -4.343487|   -1.479318|   -1.952068|    1.202323|    1.920576|    0.163411|
|         988|           0|   -4.298007|   -1.329184|   -1.853199|    1.270689|    1.920579|    0.163412|
|         989|           0|   -4.295869|   -1.253842|   -1.789900|    1.288950|    1.920582|    0.163412|
|         990|           0|   -4.330730|   -1.232510|   -1.765850|    1.262488|    1.920585|    0.163412|
+-----------------------------------------------------------------------+
|        File Writing Summary       |              Filename             |
+-----------------------------------------------------------------------+
|SU2 restart                        |solution_flow.dat                  |
|Paraview                           |flow.vtu                           |
|Paraview surface                   |surface_flow.vtu                   |
+-----------------------------------------------------------------------+

Writing the forces breakdown file (forces_breakdown.dat).
+-------------------------------------------------------------------------------------------------------+
|  Inner_Iter|   Time_Iter|    rms[Rho]|   rms[RhoU]|   rms[RhoV]|   rms[RhoE]|          CL|          CD|
+-------------------------------------------------------------------------------------------------------+
|         991|           0|   -4.386570|   -1.253164|   -1.779853|    1.199565|    1.920588|    0.163412|
|         992|           0|   -4.438184|   -1.309754|   -1.830135|    1.111593|    1.920591|    0.163412|
|         993|           0|   -4.456542|   -1.402745|   -1.911919|    1.025204|    1.920594|    0.163412|
|         994|           0|   -4.429356|   -1.541821|   -2.004339|    0.997926|    1.920597|    0.163413|
|         995|           0|   -4.372544|   -1.748789|   -2.053463|    1.058067|    1.920600|    0.163413|
|         996|           0|   -4.305051|   -1.905077|   -2.017128|    1.159284|    1.920603|    0.163413|
|         997|           0|   -4.231004|   -1.631836|   -1.924849|    1.270103|    1.920606|    0.163413|
|         998|           0|   -4.146730|   -1.350571|   -1.809343|    1.386517|    1.920609|    0.163413|
|         999|           0|   -4.052448|   -1.130835|   -1.682939|    1.506301|    1.920613|    0.163414|

----------------------------- Solver Exit -------------------------------

Maximum number of iterations reached (ITER = 1000) before convergence.
+-----------------------------------------------------------------------+
|      Convergence Field     |     Value    |   Criterion  |  Converged |
+-----------------------------------------------------------------------+
|                  Cauchy[CD]|   1.04179e-06|       < 1e-10|          No|
+-----------------------------------------------------------------------+
-------------------------------------------------------------------------
+-----------------------------------------------------------------------+
|        File Writing Summary       |              Filename             |
+-----------------------------------------------------------------------+
|SU2 restart                        |solution_flow.dat                  |
|Paraview                           |flow.vtu                           |
|Paraview surface                   |surface_flow.vtu                   |
+-----------------------------------------------------------------------+

Writing the forces breakdown file (forces_breakdown.dat).

------------------------- Solver Postprocessing -------------------------
Deleted CNumerics container.
Deleted CIntegration container.
Deleted CSolver container.
Deleted CIteration container.
Deleted CInterpolator container.
Deleted CInterface container.
Deleted CGeometry container.
Deleted CFreeFormDefBox class.
Deleted CSurfaceMovement class.
Deleted CVolumetricMovement class.
Deleted CConfig container.
Deleted nInst container.
Deleted COutput class.
-------------------------------------------------------------------------

------------------------- Exit Success (SU2_CFD) ------------------------

