
-------------------------------------------------------------------------
|    ___ _   _ ___                                                      |
|   / __| | | |_  )   Release 7.0.3 "Blackbird"                         |
|   \__ \ |_| |/ /                                                      |
|   |___/\___//___|   Suite (Computational Fluid Dynamics Code)         |
|                                                                       |
-------------------------------------------------------------------------
| SU2 Project Website: https://su2code.github.io                        |
|                                                                       |
| The SU2 Project is maintained by the SU2 Foundation                   |
| (http://su2foundation.org)                                            |
-------------------------------------------------------------------------
| Copyright 2012-2020, SU2 Contributors                                 |
|                                                                       |
| SU2 is free software; you can redistribute it and/or                  |
| modify it under the terms of the GNU Lesser General Public            |
| License as published by the Free Software Foundation; either          |
| version 2.1 of the License, or (at your option) any later version.    |
|                                                                       |
| SU2 is distributed in the hope that it will be useful,                |
| but WITHOUT ANY WARRANTY; without even the implied warranty of        |
| MERCHANTABILITY or FITNESS FOR A PARTICULAR PURPOSE. See the GNU      |
| Lesser General Public License for more details.                       |
|                                                                       |
| You should have received a copy of the GNU Lesser General Public      |
| License along with SU2. If not, see <http://www.gnu.org/licenses/>.   |
-------------------------------------------------------------------------

Parsing config file for zone 0

----------------- Physical Case Definition ( Zone 0 ) -------------------
Compressible Euler equations.
Mach number: 0.21.
Angle of attack (AoA): 2 deg, and angle of sideslip (AoS): 0 deg.
No restart solution, use the values at infinity (freestream).
Dimensional simulation.
The reference area is 55.7983 m^2.
The semi-span will be computed using the max y(3D) value.
The reference length is 1.8008 m.
Surface(s) where the force coefficients are evaluated and 
their reference origin for moment computation: 
   - VTP (9.6115, 0, 2.5277).
   - Fuselage (9.6115, 0, 2.5277).
   - HTP (9.6115, 0, 2.5277).
   - Wing (9.6115, 0, 2.5277) m.
Surface(s) where the objective function is evaluated: airfoil.
Surface(s) plotted in the output file: VTP, Fuselage, HTP, Wing.
Surface(s) to be analyzed in detail: airfoil.
Surface(s) affected by the design variables: VTP, Fuselage, HTP, Wing.
Input mesh file name: deformed.su2

--------------- Space Numerical Integration ( Zone 0 ) ------------------
Roe (with entropy fix = 0) solver for the flow inviscid terms.
Roe with DDES's FD low-dissipation function.
Second order integration in space, with slope limiter.
Venkatakrishnan slope-limiting method, with constant: 0.05. 
The reference element size is: 1. 
Gradient for upwind reconstruction: Green-Gauss.
Gradient for viscous and source terms: Green-Gauss.

--------------- Time Numerical Integration  ( Zone 0 ) ------------------
Local time stepping (steady state simulation).
Euler implicit method for the flow equations.
FGMRES is used for solving the linear system.
Using a ILU(0) preconditioning.
Convergence criteria of the linear solver: 1e-06.
Max number of linear iterations: 5.
V Multigrid Cycle, with 3 multigrid levels.
Damping factor for the residual restriction: 0.75.
Damping factor for the correction prolongation: 0.75.
No CFL adaptation.
+-------------------------------------------+
|  MG Level| Presmooth|PostSmooth|CorrectSmo|
+-------------------------------------------+
|         0|         1|         0|         0|
|         1|         2|         0|         0|
|         2|         3|         0|         0|
|         3|         3|         0|         0|
+-------------------------------------------+
Courant-Friedrichs-Lewy number:        1

------------------ Convergence Criteria  ( Zone 0 ) ---------------------
Maximum number of solver subiterations: 1000.
Begin convergence monitoring at iteration 10.
Residual minimum value: 1e-8.
Cauchy series min. value: 1e-10.
Number of Cauchy elements: 100.
Begin windowed time average at iteration 15.

-------------------- Output Information ( Zone 0 ) ----------------------
Writing solution files every 10 iterations.
Writing the convergence history file every 1 inner iterations.
Writing the screen convergence history every 1 inner iterations.
The tabular file format is Tecplot (.dat).
Convergence history file name: history.
Forces breakdown file name: forces_breakdown.dat.
Surface file name: surface_flow.
Volume file name: flow.
Restart file name: solution_flow.dat.

------------- Config File Boundary Information ( Zone 0 ) ---------------
+-----------------------------------------------------------------------+
|                        Marker Type|                        Marker Name|
+-----------------------------------------------------------------------+
|                         Euler wall|                                VTP|
|                                   |                           Fuselage|
|                                   |                                HTP|
|                                   |                               Wing|
+-----------------------------------------------------------------------+
|                          Far-field|                           Farfield|
+-----------------------------------------------------------------------+
|                     Symmetry plane|                                  0|
+-----------------------------------------------------------------------+
|           Deformable mesh boundary|                            airfoil|
+-----------------------------------------------------------------------+

-------------------- Output Preprocessing ( Zone 0 ) --------------------
Screen output fields: INNER_ITER, TIME_ITER, RMS_DENSITY, RMS_MOMENTUM-X, RMS_MOMENTUM-Y, RMS_ENERGY, LIFT, DRAG
  Info: Ignoring the following history output groups:
  TIME_ITER
History output group(s): ITER, RMS_RES, AERO_COEFF
Warning: No (valid) fields chosen for convergence monitoring. Convergence monitoring inactive.
Warning: No (valid) fields chosen for time convergence monitoring. Time convergence monitoring inactive.
Volume output fields: COORDINATES, SOLUTION, PRIMITIVE

------------------- Geometry Preprocessing ( Zone 0 ) -------------------
Three dimensional problem.
134403 grid points before partitioning.
750945 volume elements before partitioning.
5 surface markers.
2298 boundary elements in index 0 (Marker = VTP).
6838 boundary elements in index 1 (Marker = Fuselage).
9046 boundary elements in index 2 (Marker = HTP).
42568 boundary elements in index 3 (Marker = Wing).
1280 boundary elements in index 4 (Marker = Farfield).
Executing the partitioning functions.
Building the graph adjacency structure.
Calling ParMETIS... graph partitioning complete (14371 edge cuts).
Distributing ParMETIS coloring.
Rebalancing vertices.
Rebalancing volume element connectivity.
Rebalancing markers and surface elements.
142496 vertices including ghost points. 
772621 interior elements including halo cells. 
772621 tetrahedra.
Establishing MPI communication patterns.
Setting point connectivity.
Renumbering points (Reverse Cuthill McKee Ordering).
Recomputing point connectivity.
Setting element connectivity.
Checking the numerical grid orientation.
Identifying edges and vertices.
Computing centers of gravity.
Setting the control volume structure.
Volume of the computational grid: 5.51661e+06.
Searching for the closest normal neighbors to the surfaces.
Storing a mapping from global to local point index.
Compute the surface curvature.
Max K: 877.844. Mean K: 41.4108. Standard deviation K: 83.338.
Checking for periodicity.
Computing mesh quality statistics for the dual control volumes.
+--------------------------------------------------------------+
|           Mesh Quality Metric|        Minimum|        Maximum|
+--------------------------------------------------------------+
|    Orthogonality Angle (deg.)|         32.943|        84.7061|
|     CV Face Area Aspect Ratio|        1.25213|        323.947|
|           CV Sub-Volume Ratio|        1.03501|         2945.6|
+--------------------------------------------------------------+
Setting the multigrid structure.
+-------------------------------------------+
|  MG Level|       CVs|Aggl. Rate|       CFL|
+-------------------------------------------+
|         0|    142496|    1/1.00|         1|
|         1|     25276|    1/5.64|  0.842804|
|         2|      5944|    1/4.25|  0.780323|
Finding max control volume width.
Communicating number of neighbors.
Semi-span length = 16.1169 m.
Wetted area = 186.488 m^2.
Area projection in the x-plane = 11.8175 m^2, y-plane = 24.8196 m^2, z-plane = 75.0029 m^2.
Max. coordinate in the x-direction = 16.6591 m, y-direction = 16.1169 m, z-direction = 5.45357 m.
Min. coordinate in the x-direction = 2.50052 m, y-direction = -16.1169 m, z-direction = 2.2657 m.
Checking if Euler & Symmetry markers are straight/plane:
Boundary marker VTP is NOT a single plane.
Boundary marker Fuselage is NOT a single plane.
Boundary marker HTP is NOT a single plane.
Boundary marker Wing is NOT a single plane.
Boundary marker 0 is a single plane.

-------------------- Solver Preprocessing ( Zone 0 ) --------------------
Inviscid flow: Computing density based on free-stream
temperature and pressure using the ideal gas law.
Force coefficients computed using free-stream values.

-- Models:
+------------------------------------------------------------------------------+
|          Viscosity Model|        Conductivity Model|              Fluid Model|
+------------------------------------------------------------------------------+
|                        -|                         -|             STANDARD_AIR|
+------------------------------------------------------------------------------+
-- Fluid properties:
+------------------------------------------------------------------------------+
|                  Name|    Dim. value|    Ref. value|      Unit|Non-dim. value|
+------------------------------------------------------------------------------+
|          Gas Constant|       287.058|             1|  N.m/kg.K|       287.058|
|      Spec. Heat Ratio|             -|             -|         -|           1.4|
+------------------------------------------------------------------------------+
-- Initial and free-stream conditions:
+------------------------------------------------------------------------------+
|                  Name|    Dim. value|    Ref. value|      Unit|Non-dim. value|
+------------------------------------------------------------------------------+
|       Static Pressure|        101325|             1|        Pa|        101325|
|               Density|       1.22498|             1|    kg/m^3|       1.22498|
|           Temperature|        288.15|             1|         K|        288.15|
|          Total Energy|        209343|             1|   m^2/s^2|        209343|
|            Velocity-X|       71.4188|             1|       m/s|       71.4188|
|            Velocity-Y|             0|             1|       m/s|             0|
|            Velocity-Z|         2.494|             1|       m/s|         2.494|
|    Velocity Magnitude|       71.4624|             1|       m/s|       71.4624|
+------------------------------------------------------------------------------+
|           Mach Number|             -|             -|         -|          0.21|
+------------------------------------------------------------------------------+
Initialize Jacobian structure (Euler). MG level: 0.
Initialize Jacobian structure (Euler). MG level: 1.
Initialize Jacobian structure (Euler). MG level: 2.

------------------- Numerics Preprocessing ( Zone 0 ) -------------------

----------------- Integration Preprocessing ( Zone 0 ) ------------------

------------------- Iteration Preprocessing ( Zone 0 ) ------------------
Euler/Navier-Stokes/RANS fluid iteration.

------------------------------ Begin Solver -----------------------------

Simulation Run using the Single-zone Driver
+-------------------------------------------------------------------------------------------------------+
|  Inner_Iter|   Time_Iter|    rms[Rho]|   rms[RhoU]|   rms[RhoV]|   rms[RhoE]|          CL|          CD|
+-------------------------------------------------------------------------------------------------------+
|           0|           0|   -1.285430|    0.818708|    0.877692|    4.180040|    0.196168|    0.420894|
|           1|           0|   -1.398713|    0.737328|    0.788064|    4.067482|    0.342521|    0.713671|
|           2|           0|   -1.431294|    0.790905|    0.797306|    4.035471|    0.445120|    0.895391|
|           3|           0|   -1.417744|    0.878879|    0.849895|    4.049129|    0.512741|    0.985962|
|           4|           0|   -1.396017|    0.959334|    0.904482|    4.070784|    0.553980|    1.004672|
|           5|           0|   -1.378999|    1.028374|    0.951007|    4.087671|    0.576615|    0.969475|
|           6|           0|   -1.366879|    1.087972|    0.989600|    4.099549|    0.587099|    0.896249|
|           7|           0|   -1.356448|    1.140107|    1.022127|    4.109527|    0.590018|    0.798389|
|           8|           0|   -1.344949|    1.186056|    1.050550|    4.120320|    0.588627|    0.686893|
|           9|           0|   -1.331159|    1.226715|    1.076279|    4.133178|    0.585039|    0.570517|
|          10|           0|   -1.315519|    1.262863|    1.100473|    4.147730|    0.580405|    0.455835|
+-----------------------------------------------------------------------+
|        File Writing Summary       |              Filename             |
+-----------------------------------------------------------------------+
|SU2 restart                        |solution_flow.dat                  |
|Paraview                           |flow.vtu                           |
|Paraview surface                   |surface_flow.vtu                   |
+-----------------------------------------------------------------------+

Writing the forces breakdown file (forces_breakdown.dat).
+-------------------------------------------------------------------------------------------------------+
|  Inner_Iter|   Time_Iter|    rms[Rho]|   rms[RhoU]|   rms[RhoV]|   rms[RhoE]|          CL|          CD|
+-------------------------------------------------------------------------------------------------------+
|          11|           0|   -1.299197|    1.295093|    1.124051|    4.162882|    0.575231|    0.347465|
|          12|           0|   -1.283603|    1.323866|    1.147448|    4.177283|    0.569532|    0.248417|
|          13|           0|   -1.269904|    1.349385|    1.170666|    4.189811|    0.563130|    0.160407|
|          14|           0|   -1.258776|    1.371715|    1.193376|    4.199794|    0.555629|    0.084082|
|          15|           0|   -1.250245|    1.390587|    1.214862|    4.207204|    0.546507|    0.019334|
|          16|           0|   -1.243784|    1.405562|    1.234311|    4.212590|    0.535286|   -0.034425|
|          17|           0|   -1.238091|    1.416251|    1.250893|    4.217379|    0.521586|   -0.078046|
|          18|           0|   -1.231888|    1.422285|    1.263764|    4.222958|    0.505161|   -0.112487|
|          19|           0|   -1.223373|    1.423333|    1.272162|    4.231357|    0.485887|   -0.138739|
|          20|           0|   -1.210844|    1.419255|    1.275583|    4.244458|    0.463764|   -0.157746|
+-----------------------------------------------------------------------+
|        File Writing Summary       |              Filename             |
+-----------------------------------------------------------------------+
|SU2 restart                        |solution_flow.dat                  |
|Paraview                           |flow.vtu                           |
|Paraview surface                   |surface_flow.vtu                   |
+-----------------------------------------------------------------------+

Writing the forces breakdown file (forces_breakdown.dat).
+-------------------------------------------------------------------------------------------------------+
|  Inner_Iter|   Time_Iter|    rms[Rho]|   rms[RhoU]|   rms[RhoV]|   rms[RhoE]|          CL|          CD|
+-------------------------------------------------------------------------------------------------------+
|          21|           0|   -1.193734|    1.410117|    1.273706|    4.262830|    0.438936|   -0.170394|
|          22|           0|   -1.172545|    1.396905|    1.266991|    4.285851|    0.411678|   -0.177487|
|          23|           0|   -1.148499|    1.380964|    1.256578|    4.312090|    0.382400|   -0.179734|
|          24|           0|   -1.123933|    1.364742|    1.244078|    4.338909|    0.351686|   -0.177744|
|          25|           0|   -1.101355|    1.351937|    1.232915|    4.363500|    0.320166|   -0.172066|
|          26|           0|   -1.082701|    1.346589|    1.227207|    4.383781|    0.288500|   -0.163205|
|          27|           0|   -1.069348|    1.350841|    1.229856|    4.398277|    0.257383|   -0.151623|
|          28|           0|   -1.062244|    1.364313|    1.241706|    4.405998|    0.227506|   -0.137756|
|          29|           0|   -1.061662|    1.384454|    1.261496|    4.406505|    0.199489|   -0.122024|
|          30|           0|   -1.067130|    1.406688|    1.285863|    4.400169|    0.173991|   -0.104834|
+-----------------------------------------------------------------------+
|        File Writing Summary       |              Filename             |
+-----------------------------------------------------------------------+
|SU2 restart                        |solution_flow.dat                  |
|Paraview                           |flow.vtu                           |
|Paraview surface                   |surface_flow.vtu                   |
+-----------------------------------------------------------------------+

Writing the forces breakdown file (forces_breakdown.dat).
+-------------------------------------------------------------------------------------------------------+
|  Inner_Iter|   Time_Iter|    rms[Rho]|   rms[RhoU]|   rms[RhoV]|   rms[RhoE]|          CL|          CD|
+-------------------------------------------------------------------------------------------------------+
|          31|           0|   -1.077264|    1.427586|    1.310631|    4.388251|    0.151563|   -0.086585|
|          32|           0|   -1.088986|    1.445072|    1.331974|    4.373749|    0.132646|   -0.067670|
|          33|           0|   -1.098744|    1.458099|    1.347798|    4.360486|    0.117613|   -0.048473|
|          34|           0|   -1.101705|    1.465832|    1.357126|    4.354142|    0.106767|   -0.029364|
|          35|           0|   -1.093972|    1.469470|    1.360779|    4.359908|    0.100297|   -0.010700|
|          36|           0|   -1.076201|    1.471783|    1.360570|    4.377999|    0.098272|    0.007192|
|          37|           0|   -1.052231|    1.474983|    1.358703|    4.404359|    0.100672|    0.024009|
|          38|           0|   -1.027356|    1.482058|    1.359573|    4.432839|    0.107370|    0.039479|
|          39|           0|   -1.005499|    1.494906|    1.368018|    4.458707|    0.118138|    0.053372|
|          40|           0|   -0.989941|    1.513715|    1.386029|    4.478292|    0.132664|    0.065503|
+-----------------------------------------------------------------------+
|        File Writing Summary       |              Filename             |
+-----------------------------------------------------------------------+
|SU2 restart                        |solution_flow.dat                  |
|Paraview                           |flow.vtu                           |
|Paraview surface                   |surface_flow.vtu                   |
+-----------------------------------------------------------------------+

Writing the forces breakdown file (forces_breakdown.dat).
+-------------------------------------------------------------------------------------------------------+
|  Inner_Iter|   Time_Iter|    rms[Rho]|   rms[RhoU]|   rms[RhoV]|   rms[RhoE]|          CL|          CD|
+-------------------------------------------------------------------------------------------------------+
|          41|           0|   -0.983364|    1.536229|    1.411623|    4.488655|    0.150601|    0.075734|
|          42|           0|   -0.986659|    1.559521|    1.441026|    4.488991|    0.171530|    0.083972|
|          43|           0|   -0.999824|    1.580540|    1.470267|    4.479152|    0.194975|    0.090174|
|          44|           0|   -1.022819|    1.596429|    1.495739|    4.458877|    0.220401|    0.094335|
|          45|           0|   -1.053647|    1.605095|    1.514376|    4.429614|    0.247259|    0.096498|
|          46|           0|   -1.087453|    1.605246|    1.523494|    4.395313|    0.274975|    0.096748|
|          47|           0|   -1.114388|    1.595146|    1.521869|    4.364444|    0.302988|    0.095206|
|          48|           0|   -1.120767|    1.573848|    1.508149|    4.350827|    0.330749|    0.092027|
|          49|           0|   -1.100056|    1.541412|    1.481137|    4.364179|    0.357735|    0.087400|
|          50|           0|   -1.058712|    1.498063|    1.439596|    4.401180|    0.383435|    0.081533|
+-----------------------------------------------------------------------+
|        File Writing Summary       |              Filename             |
+-----------------------------------------------------------------------+
|SU2 restart                        |solution_flow.dat                  |
|Paraview                           |flow.vtu                           |
|Paraview surface                   |surface_flow.vtu                   |
+-----------------------------------------------------------------------+

Writing the forces breakdown file (forces_breakdown.dat).
+-------------------------------------------------------------------------------------------------------+
|  Inner_Iter|   Time_Iter|    rms[Rho]|   rms[RhoU]|   rms[RhoV]|   rms[RhoE]|          CL|          CD|
+-------------------------------------------------------------------------------------------------------+
|          51|           0|   -1.009699|    1.445813|    1.381706|    4.449276|    0.407383|    0.074653|
|          52|           0|   -0.963524|    1.389676|    1.307760|    4.496641|    0.429159|    0.066992|
|          53|           0|   -0.925742|    1.347640|    1.230958|    4.536581|    0.448412|    0.058791|
|          54|           0|   -0.898333|    1.342179|    1.189765|    4.566424|    0.464852|    0.050285|
|          55|           0|   -0.882295|    1.377618|    1.222630|    4.584852|    0.478245|    0.041699|
|          56|           0|   -0.877968|    1.433816|    1.303150|    4.591296|    0.488445|    0.033243|
|          57|           0|   -0.885771|    1.493263|    1.391079|    4.585215|    0.495376|    0.025114|
|          58|           0|   -0.904759|    1.546225|    1.469112|    4.567606|    0.499044|    0.017481|
|          59|           0|   -0.934922|    1.589551|    1.532311|    4.538237|    0.499526|    0.010490|
|          60|           0|   -0.976219|    1.622089|    1.580639|    4.496574|    0.496963|    0.004260|
+-----------------------------------------------------------------------+
|        File Writing Summary       |              Filename             |
+-----------------------------------------------------------------------+
|SU2 restart                        |solution_flow.dat                  |
|Paraview                           |flow.vtu                           |
|Paraview surface                   |surface_flow.vtu                   |
+-----------------------------------------------------------------------+

Writing the forces breakdown file (forces_breakdown.dat).
+-------------------------------------------------------------------------------------------------------+
|  Inner_Iter|   Time_Iter|    rms[Rho]|   rms[RhoU]|   rms[RhoV]|   rms[RhoE]|          CL|          CD|
+-------------------------------------------------------------------------------------------------------+
|          61|           0|   -1.026420|    1.644542|    1.614859|    4.443906|    0.491567|   -0.001112|
|          62|           0|   -1.079627|    1.656053|    1.635979|    4.384583|    0.483604|   -0.005563|
|          63|           0|   -1.124242|    1.656584|    1.645627|    4.328862|    0.473381|   -0.009057|
|          64|           0|   -1.143041|    1.647073|    1.643965|    4.296801|    0.461236|   -0.011589|
|          65|           0|   -1.128041|    1.627817|    1.631025|    4.303610|    0.447540|   -0.013177|
|          66|           0|   -1.087880|    1.598106|    1.606894|    4.343854|    0.432680|   -0.013861|
|          67|           0|   -1.038815|    1.558278|    1.571062|    4.397897|    0.417038|   -0.013701|
|          68|           0|   -0.993213|    1.508538|    1.522908|    4.449563|    0.401009|   -0.012773|
|          69|           0|   -0.956083|    1.449102|    1.461940|    4.492221|    0.384984|   -0.011162|
|          70|           0|   -0.928875|    1.385706|    1.389651|    4.524020|    0.369340|   -0.008965|
+-----------------------------------------------------------------------+
|        File Writing Summary       |              Filename             |
+-----------------------------------------------------------------------+
|SU2 restart                        |solution_flow.dat                  |
|Paraview                           |flow.vtu                           |
|Paraview surface                   |surface_flow.vtu                   |
+-----------------------------------------------------------------------+

Writing the forces breakdown file (forces_breakdown.dat).
+-------------------------------------------------------------------------------------------------------+
|  Inner_Iter|   Time_Iter|    rms[Rho]|   rms[RhoU]|   rms[RhoV]|   rms[RhoE]|          CL|          CD|
+-------------------------------------------------------------------------------------------------------+
|          71|           0|   -0.911870|    1.327243|    1.309479|    4.544723|    0.354426|   -0.006286|
|          72|           0|   -0.905072|    1.289997|    1.235227|    4.554510|    0.340573|   -0.003231|
|          73|           0|   -0.907658|    1.287411|    1.193375|    4.554282|    0.328072|    0.000093|
|          74|           0|   -0.919348|    1.314464|    1.205231|    4.544286|    0.317197|    0.003584|
|          75|           0|   -0.939132|    1.356238|    1.256379|    4.525577|    0.308156|    0.007141|
|          76|           0|   -0.966831|    1.399930|    1.318357|    4.498120|    0.301118|    0.010674|
|          77|           0|   -1.000814|    1.438457|    1.375192|    4.463209|    0.296189|    0.014097|
|          78|           0|   -1.039458|    1.469110|    1.421628|    4.421909|    0.293445|    0.017339|
|          79|           0|   -1.078821|    1.492088|    1.456556|    4.377670|    0.292880|    0.020334|
|          80|           0|   -1.114334|    1.506907|    1.480827|    4.334792|    0.294465|    0.023030|
+-----------------------------------------------------------------------+
|        File Writing Summary       |              Filename             |
+-----------------------------------------------------------------------+
|SU2 restart                        |solution_flow.dat                  |
|Paraview                           |flow.vtu                           |
|Paraview surface                   |surface_flow.vtu                   |
+-----------------------------------------------------------------------+

Writing the forces breakdown file (forces_breakdown.dat).
+-------------------------------------------------------------------------------------------------------+
|  Inner_Iter|   Time_Iter|    rms[Rho]|   rms[RhoU]|   rms[RhoV]|   rms[RhoE]|          CL|          CD|
+-------------------------------------------------------------------------------------------------------+
|          81|           0|   -1.140863|    1.514027|    1.495604|    4.298965|    0.298121|    0.025387|
|          82|           0|   -1.153789|    1.514032|    1.501645|    4.277140|    0.303749|    0.027375|
|          83|           0|   -1.153129|    1.506976|    1.498670|    4.271775|    0.311179|    0.028974|
|          84|           0|   -1.142405|    1.494507|    1.488125|    4.280535|    0.320231|    0.030177|
|          85|           0|   -1.126613|    1.476398|    1.470547|    4.297726|    0.330672|    0.030986|
|          86|           0|   -1.109876|    1.453222|    1.446318|    4.317896|    0.342268|    0.031411|
|          87|           0|   -1.095798|    1.426135|    1.416728|    4.336228|    0.354744|    0.031472|
|          88|           0|   -1.086315|    1.396098|    1.382891|    4.350043|    0.367829|    0.031196|
|          89|           0|   -1.082598|    1.364882|    1.345734|    4.357853|    0.381227|    0.030611|
|          90|           0|   -1.084049|    1.333314|    1.307788|    4.360218|    0.394669|    0.029755|
+-----------------------------------------------------------------------+
|        File Writing Summary       |              Filename             |
+-----------------------------------------------------------------------+
|SU2 restart                        |solution_flow.dat                  |
|Paraview                           |flow.vtu                           |
|Paraview surface                   |surface_flow.vtu                   |
+-----------------------------------------------------------------------+

Writing the forces breakdown file (forces_breakdown.dat).
+-------------------------------------------------------------------------------------------------------+
|  Inner_Iter|   Time_Iter|    rms[Rho]|   rms[RhoU]|   rms[RhoV]|   rms[RhoE]|          CL|          CD|
+-------------------------------------------------------------------------------------------------------+
|          91|           0|   -1.091034|    1.303483|    1.271238|    4.356574|    0.407869|    0.028663|
|          92|           0|   -1.102913|    1.276776|    1.240216|    4.347630|    0.420580|    0.027378|
|          93|           0|   -1.119439|    1.254488|    1.217604|    4.333537|    0.432548|    0.025936|
|          94|           0|   -1.139573|    1.237528|    1.205221|    4.315348|    0.443572|    0.024380|
|          95|           0|   -1.162428|    1.226888|    1.203211|    4.293888|    0.453452|    0.022748|
|          96|           0|   -1.186727|    1.221913|    1.209975|    4.270293|    0.462042|    0.021079|
|          97|           0|   -1.211854|    1.221900|    1.221862|    4.244929|    0.469216|    0.019406|
|          98|           0|   -1.236891|    1.225168|    1.236058|    4.218565|    0.474907|    0.017763|
|          99|           0|   -1.260570|    1.230063|    1.250288|    4.192416|    0.479059|    0.016176|
|         100|           0|   -1.281870|    1.235746|    1.262828|    4.167674|    0.481676|    0.014672|
+-----------------------------------------------------------------------+
|        File Writing Summary       |              Filename             |
+-----------------------------------------------------------------------+
|SU2 restart                        |solution_flow.dat                  |
|Paraview                           |flow.vtu                           |
|Paraview surface                   |surface_flow.vtu                   |
+-----------------------------------------------------------------------+

Writing the forces breakdown file (forces_breakdown.dat).
+-------------------------------------------------------------------------------------------------------+
|  Inner_Iter|   Time_Iter|    rms[Rho]|   rms[RhoU]|   rms[RhoV]|   rms[RhoE]|          CL|          CD|
+-------------------------------------------------------------------------------------------------------+
|         101|           0|   -1.300093|    1.241389|    1.272819|    4.145231|    0.482768|    0.013271|
|         102|           0|   -1.315357|    1.245989|    1.280016|    4.125263|    0.482413|    0.011994|
|         103|           0|   -1.327843|    1.248969|    1.284121|    4.108151|    0.480680|    0.010851|
|         104|           0|   -1.337891|    1.250126|    1.285133|    4.094082|    0.477709|    0.009855|
|         105|           0|   -1.346875|    1.249326|    1.282964|    4.081873|    0.473621|    0.009010|
|         106|           0|   -1.355669|    1.246543|    1.277827|    4.070806|    0.468591|    0.008321|
|         107|           0|   -1.365164|    1.241793|    1.269992|    4.060097|    0.462771|    0.007788|
|         108|           0|   -1.376324|    1.235009|    1.259695|    4.048674|    0.456369|    0.007410|
|         109|           0|   -1.389236|    1.226069|    1.246815|    4.036473|    0.449556|    0.007183|
|         110|           0|   -1.403717|    1.214971|    1.231474|    4.023693|    0.442541|    0.007103|
+-----------------------------------------------------------------------+
|        File Writing Summary       |              Filename             |
+-----------------------------------------------------------------------+
|SU2 restart                        |solution_flow.dat                  |
|Paraview                           |flow.vtu                           |
|Paraview surface                   |surface_flow.vtu                   |
+-----------------------------------------------------------------------+

Writing the forces breakdown file (forces_breakdown.dat).
+-------------------------------------------------------------------------------------------------------+
|  Inner_Iter|   Time_Iter|    rms[Rho]|   rms[RhoU]|   rms[RhoV]|   rms[RhoE]|          CL|          CD|
+-------------------------------------------------------------------------------------------------------+
|         111|           0|   -1.419326|    1.201317|    1.213784|    4.010751|    0.435495|    0.007159|
|         112|           0|   -1.435940|    1.185139|    1.193973|    3.997585|    0.428613|    0.007344|
|         113|           0|   -1.452874|    1.166324|    1.172414|    3.984771|    0.422044|    0.007645|
|         114|           0|   -1.469808|    1.145120|    1.149566|    3.972393|    0.415956|    0.008053|
|         115|           0|   -1.486117|    1.121827|    1.125927|    3.960826|    0.410466|    0.008551|
|         116|           0|   -1.501653|    1.096857|    1.102198|    3.949828|    0.405708|    0.009131|
|         117|           0|   -1.516579|    1.070553|    1.079466|    3.938895|    0.401755|    0.009775|
|         118|           0|   -1.530977|    1.044118|    1.058471|    3.927767|    0.398695|    0.010472|
|         119|           0|   -1.545093|    1.018634|    1.040210|    3.916011|    0.396556|    0.011206|
|         120|           0|   -1.559266|    0.995143|    1.025530|    3.903189|    0.395383|    0.011965|
+-----------------------------------------------------------------------+
|        File Writing Summary       |              Filename             |
+-----------------------------------------------------------------------+
|SU2 restart                        |solution_flow.dat                  |
|Paraview                           |flow.vtu                           |
|Paraview surface                   |surface_flow.vtu                   |
+-----------------------------------------------------------------------+

Writing the forces breakdown file (forces_breakdown.dat).
+-------------------------------------------------------------------------------------------------------+
|  Inner_Iter|   Time_Iter|    rms[Rho]|   rms[RhoU]|   rms[RhoV]|   rms[RhoE]|          CL|          CD|
+-------------------------------------------------------------------------------------------------------+
|         121|           0|   -1.573964|    0.974985|    1.015092|    3.888869|    0.395158|    0.012735|
|         122|           0|   -1.589955|    0.959475|    1.009161|    3.872276|    0.395884|    0.013505|
|         123|           0|   -1.607067|    0.949557|    1.007478|    3.853626|    0.397498|    0.014260|
|         124|           0|   -1.625736|    0.945074|    1.009514|    3.832658|    0.399971|    0.014990|
|         125|           0|   -1.646199|    0.945054|    1.014277|    3.809150|    0.403206|    0.015682|
|         126|           0|   -1.668399|    0.948448|    1.020842|    3.783181|    0.407144|    0.016328|
|         127|           0|   -1.692086|    0.953951|    1.028181|    3.755076|    0.411663|    0.016916|
|         128|           0|   -1.717181|    0.960386|    1.035334|    3.725092|    0.416686|    0.017440|
|         129|           0|   -1.743620|    0.966790|    1.041780|    3.693395|    0.422077|    0.017891|
|         130|           0|   -1.770911|    0.971936|    1.047087|    3.660678|    0.427751|    0.018264|
+-----------------------------------------------------------------------+
|        File Writing Summary       |              Filename             |
+-----------------------------------------------------------------------+
|SU2 restart                        |solution_flow.dat                  |
|Paraview                           |flow.vtu                           |
|Paraview surface                   |surface_flow.vtu                   |
+-----------------------------------------------------------------------+

Writing the forces breakdown file (forces_breakdown.dat).
+-------------------------------------------------------------------------------------------------------+
|  Inner_Iter|   Time_Iter|    rms[Rho]|   rms[RhoU]|   rms[RhoV]|   rms[RhoE]|          CL|          CD|
+-------------------------------------------------------------------------------------------------------+
|         131|           0|   -1.798417|    0.975056|    1.051043|    3.627897|    0.433572|    0.018552|
|         132|           0|   -1.825750|    0.975958|    1.053436|    3.595852|    0.439456|    0.018754|
|         133|           0|   -1.851268|    0.974433|    1.054209|    3.566877|    0.445272|    0.018864|
|         134|           0|   -1.874080|    0.970405|    1.053284|    3.542459|    0.450943|    0.018882|
|         135|           0|   -1.893318|    0.963945|    1.050736|    3.523836|    0.456356|    0.018808|
|         136|           0|   -1.908056|    0.954628|    1.046633|    3.511902|    0.461455|    0.018645|
|         137|           0|   -1.918873|    0.942697|    1.041221|    3.505642|    0.466147|    0.018392|
|         138|           0|   -1.926391|    0.928437|    1.034632|    3.503662|    0.470392|    0.018057|
|         139|           0|   -1.931317|    0.912141|    1.027059|    3.504594|    0.474119|    0.017643|
|         140|           0|   -1.934262|    0.894092|    1.018752|    3.507285|    0.477312|    0.017158|
+-----------------------------------------------------------------------+
|        File Writing Summary       |              Filename             |
+-----------------------------------------------------------------------+
|SU2 restart                        |solution_flow.dat                  |
|Paraview                           |flow.vtu                           |
|Paraview surface                   |surface_flow.vtu                   |
+-----------------------------------------------------------------------+

Writing the forces breakdown file (forces_breakdown.dat).
+-------------------------------------------------------------------------------------------------------+
|  Inner_Iter|   Time_Iter|    rms[Rho]|   rms[RhoU]|   rms[RhoV]|   rms[RhoE]|          CL|          CD|
+-------------------------------------------------------------------------------------------------------+
|         141|           0|   -1.936138|    0.874193|    1.009967|    3.510400|    0.479922|    0.016609|
|         142|           0|   -1.938103|    0.852776|    1.001031|    3.512621|    0.481964|    0.016006|
|         143|           0|   -1.941007|    0.830780|    0.992158|    3.513069|    0.483417|    0.015358|
|         144|           0|   -1.945217|    0.808810|    0.983588|    3.511434|    0.484321|    0.014677|
|         145|           0|   -1.951124|    0.787843|    0.975534|    3.507522|    0.484676|    0.013973|
|         146|           0|   -1.959026|    0.768806|    0.968047|    3.501103|    0.484536|    0.013260|
|         147|           0|   -1.968994|    0.752591|    0.961255|    3.492264|    0.483920|    0.012546|
|         148|           0|   -1.981054|    0.739918|    0.955253|    3.481019|    0.482895|    0.011847|
|         149|           0|   -1.995484|    0.731191|    0.950019|    3.467174|    0.481494|    0.011170|
|         150|           0|   -2.011992|    0.726386|    0.945507|    3.451040|    0.479795|    0.010529|
+-----------------------------------------------------------------------+
|        File Writing Summary       |              Filename             |
+-----------------------------------------------------------------------+
|SU2 restart                        |solution_flow.dat                  |
|Paraview                           |flow.vtu                           |
|Paraview surface                   |surface_flow.vtu                   |
+-----------------------------------------------------------------------+

Writing the forces breakdown file (forces_breakdown.dat).
+-------------------------------------------------------------------------------------------------------+
|  Inner_Iter|   Time_Iter|    rms[Rho]|   rms[RhoU]|   rms[RhoV]|   rms[RhoE]|          CL|          CD|
+-------------------------------------------------------------------------------------------------------+
|         151|           0|   -2.030409|    0.725383|    0.941627|    3.432815|    0.477835|    0.009931|
|         152|           0|   -2.050489|    0.727619|    0.938220|    3.412825|    0.475702|    0.009389|
|         153|           0|   -2.072254|    0.732316|    0.935116|    3.391009|    0.473437|    0.008908|
|         154|           0|   -2.095359|    0.738738|    0.932170|    3.367606|    0.471127|    0.008497|
|         155|           0|   -2.119121|    0.746152|    0.929241|    3.343191|    0.468806|    0.008161|
|         156|           0|   -2.143076|    0.753928|    0.926189|    3.318132|    0.466552|    0.007905|
|         157|           0|   -2.166498|    0.761668|    0.922944|    3.292989|    0.464395|    0.007730|
|         158|           0|   -2.188716|    0.768970|    0.919427|    3.268381|    0.462404|    0.007640|
|         159|           0|   -2.209203|    0.775562|    0.915614|    3.244686|    0.460600|    0.007631|
|         160|           0|   -2.226744|    0.781304|    0.911433|    3.223245|    0.459041|    0.007703|
+-----------------------------------------------------------------------+
|        File Writing Summary       |              Filename             |
+-----------------------------------------------------------------------+
|SU2 restart                        |solution_flow.dat                  |
|Paraview                           |flow.vtu                           |
|Paraview surface                   |surface_flow.vtu                   |
+-----------------------------------------------------------------------+

Writing the forces breakdown file (forces_breakdown.dat).
+-------------------------------------------------------------------------------------------------------+
|  Inner_Iter|   Time_Iter|    rms[Rho]|   rms[RhoU]|   rms[RhoV]|   rms[RhoE]|          CL|          CD|
+-------------------------------------------------------------------------------------------------------+
|         161|           0|   -2.240662|    0.786121|    0.906828|    3.204928|    0.457736|    0.007850|
|         162|           0|   -2.250766|    0.789926|    0.901735|    3.190183|    0.456729|    0.008070|
|         163|           0|   -2.256530|    0.792702|    0.896118|    3.180076|    0.456015|    0.008353|
|         164|           0|   -2.258263|    0.794419|    0.890028|    3.174546|    0.455624|    0.008694|
|         165|           0|   -2.256676|    0.795116|    0.883462|    3.173240|    0.455537|    0.009082|
|         166|           0|   -2.252474|    0.794928|    0.876488|    3.175830|    0.455771|    0.009510|
|         167|           0|   -2.246337|    0.793946|    0.869140|    3.181643|    0.456295|    0.009966|
|         168|           0|   -2.239216|    0.792402|    0.861462|    3.189727|    0.457118|    0.010442|
|         169|           0|   -2.231707|    0.790305|    0.853435|    3.199064|    0.458204|    0.010924|
|         170|           0|   -2.224714|    0.787717|    0.845080|    3.208372|    0.459544|    0.011405|
+-----------------------------------------------------------------------+
|        File Writing Summary       |              Filename             |
+-----------------------------------------------------------------------+
|SU2 restart                        |solution_flow.dat                  |
|Paraview                           |flow.vtu                           |
|Paraview surface                   |surface_flow.vtu                   |
+-----------------------------------------------------------------------+

Writing the forces breakdown file (forces_breakdown.dat).
+-------------------------------------------------------------------------------------------------------+
|  Inner_Iter|   Time_Iter|    rms[Rho]|   rms[RhoU]|   rms[RhoV]|   rms[RhoE]|          CL|          CD|
+-------------------------------------------------------------------------------------------------------+
|         171|           0|   -2.218880|    0.784805|    0.836497|    3.216705|    0.461089|    0.011872|
|         172|           0|   -2.214697|    0.781735|    0.827714|    3.223463|    0.462831|    0.012317|
|         173|           0|   -2.212202|    0.778724|    0.818850|    3.228687|    0.464720|    0.012730|
|         174|           0|   -2.211409|    0.775907|    0.809970|    3.232345|    0.466739|    0.013105|
|         175|           0|   -2.212174|    0.773422|    0.801103|    3.234525|    0.468833|    0.013432|
|         176|           0|   -2.214558|    0.771344|    0.792273|    3.235064|    0.470988|    0.013709|
|         177|           0|   -2.218606|    0.769751|    0.783564|    3.233952|    0.473150|    0.013928|
|         178|           0|   -2.223999|    0.768682|    0.774994|    3.231489|    0.475302|    0.014089|
|         179|           0|   -2.230688|    0.768064|    0.766587|    3.227518|    0.477393|    0.014187|
|         180|           0|   -2.238248|    0.767866|    0.758389|    3.222497|    0.479412|    0.014225|
+-----------------------------------------------------------------------+
|        File Writing Summary       |              Filename             |
+-----------------------------------------------------------------------+
|SU2 restart                        |solution_flow.dat                  |
|Paraview                           |flow.vtu                           |
|Paraview surface                   |surface_flow.vtu                   |
+-----------------------------------------------------------------------+

Writing the forces breakdown file (forces_breakdown.dat).
+-------------------------------------------------------------------------------------------------------+
|  Inner_Iter|   Time_Iter|    rms[Rho]|   rms[RhoU]|   rms[RhoV]|   rms[RhoE]|          CL|          CD|
+-------------------------------------------------------------------------------------------------------+
|         181|           0|   -2.245992|    0.768226|    0.750323|    3.217401|    0.481315|    0.014201|
|         182|           0|   -2.253267|    0.769009|    0.742496|    3.212832|    0.483095|    0.014120|
|         183|           0|   -2.259897|    0.770001|    0.734792|    3.208521|    0.484714|    0.013983|
|         184|           0|   -2.263332|    0.771799|    0.726892|    3.206888|    0.486172|    0.013798|
|         185|           0|   -2.266799|    0.773042|    0.719541|    3.204768|    0.487446|    0.013567|
|         186|           0|   -2.268699|    0.774326|    0.712271|    3.203857|    0.488542|    0.013299|
|         187|           0|   -2.270944|    0.775084|    0.705084|    3.201448|    0.489439|    0.012998|
|         188|           0|   -2.271177|    0.775897|    0.697969|    3.200300|    0.490154|    0.012675|
|         189|           0|   -2.269894|    0.776730|    0.691072|    3.200006|    0.490676|    0.012335|
|         190|           0|   -2.268077|    0.777564|    0.684451|    3.199795|    0.491025|    0.011988|
+-----------------------------------------------------------------------+
|        File Writing Summary       |              Filename             |
+-----------------------------------------------------------------------+
|SU2 restart                        |solution_flow.dat                  |
|Paraview                           |flow.vtu                           |
|Paraview surface                   |surface_flow.vtu                   |
+-----------------------------------------------------------------------+

Writing the forces breakdown file (forces_breakdown.dat).
+-------------------------------------------------------------------------------------------------------+
|  Inner_Iter|   Time_Iter|    rms[Rho]|   rms[RhoU]|   rms[RhoV]|   rms[RhoE]|          CL|          CD|
+-------------------------------------------------------------------------------------------------------+
|         191|           0|   -2.266053|    0.778362|    0.678154|    3.199542|    0.491198|    0.011640|
|         192|           0|   -2.264159|    0.779116|    0.672189|    3.198991|    0.491220|    0.011299|
|         193|           0|   -2.263474|    0.779793|    0.666443|    3.197204|    0.491096|    0.010971|
|         194|           0|   -2.264046|    0.780248|    0.660811|    3.194128|    0.490854|    0.010664|
|         195|           0|   -2.266833|    0.780125|    0.655154|    3.188786|    0.490500|    0.010379|
|         196|           0|   -2.271722|    0.779398|    0.649366|    3.181220|    0.490067|    0.010126|
|         197|           0|   -2.277459|    0.778079|    0.643227|    3.172994|    0.489561|    0.009905|
|         198|           0|   -2.284401|    0.776021|    0.636612|    3.163760|    0.489017|    0.009720|
|         199|           0|   -2.291651|    0.773413|    0.629273|    3.154754|    0.488443|    0.009571|
|         200|           0|   -2.298667|    0.770266|    0.621089|    3.146928|    0.487871|    0.009462|
+-----------------------------------------------------------------------+
|        File Writing Summary       |              Filename             |
+-----------------------------------------------------------------------+
|SU2 restart                        |solution_flow.dat                  |
|Paraview                           |flow.vtu                           |
|Paraview surface                   |surface_flow.vtu                   |
+-----------------------------------------------------------------------+

Writing the forces breakdown file (forces_breakdown.dat).
+-------------------------------------------------------------------------------------------------------+
|  Inner_Iter|   Time_Iter|    rms[Rho]|   rms[RhoU]|   rms[RhoV]|   rms[RhoE]|          CL|          CD|
+-------------------------------------------------------------------------------------------------------+
|         201|           0|   -2.305361|    0.766548|    0.611906|    3.140581|    0.487309|    0.009388|
|         202|           0|   -2.310920|    0.762197|    0.601585|    3.136536|    0.486784|    0.009352|
|         203|           0|   -2.315095|    0.757112|    0.589958|    3.134901|    0.486301|    0.009348|
|         204|           0|   -2.318089|    0.751242|    0.576945|    3.135126|    0.485887|    0.009377|
|         205|           0|   -2.318229|    0.744703|    0.562515|    3.138646|    0.485541|    0.009431|
|         206|           0|   -2.315942|    0.737535|    0.546721|    3.144759|    0.485286|    0.009509|
|         207|           0|   -2.312056|    0.729799|    0.529742|    3.152365|    0.485116|    0.009606|
|         208|           0|   -2.306565|    0.721567|    0.511719|    3.161234|    0.485048|    0.009718|
|         209|           0|   -2.300237|    0.713025|    0.493056|    3.170412|    0.485074|    0.009837|
|         210|           0|   -2.294384|    0.704286|    0.474226|    3.178457|    0.485206|    0.009964|
+-----------------------------------------------------------------------+
|        File Writing Summary       |              Filename             |
+-----------------------------------------------------------------------+
|SU2 restart                        |solution_flow.dat                  |
|Paraview                           |flow.vtu                           |
|Paraview surface                   |surface_flow.vtu                   |
+-----------------------------------------------------------------------+

Writing the forces breakdown file (forces_breakdown.dat).
+-------------------------------------------------------------------------------------------------------+
|  Inner_Iter|   Time_Iter|    rms[Rho]|   rms[RhoU]|   rms[RhoV]|   rms[RhoE]|          CL|          CD|
+-------------------------------------------------------------------------------------------------------+
|         211|           0|   -2.288762|    0.695596|    0.455929|    3.185641|    0.485428|    0.010088|
|         212|           0|   -2.284593|    0.687245|    0.438919|    3.190910|    0.485748|    0.010210|
|         213|           0|   -2.282025|    0.679432|    0.423935|    3.194109|    0.486149|    0.010321|
|         214|           0|   -2.281723|    0.672333|    0.411707|    3.194568|    0.486632|    0.010422|
|         215|           0|   -2.283809|    0.666058|    0.402682|    3.192254|    0.487179|    0.010506|
|         216|           0|   -2.287962|    0.660708|    0.397032|    3.187577|    0.487791|    0.010574|
|         217|           0|   -2.294998|    0.656290|    0.394539|    3.179759|    0.488444|    0.010621|
|         218|           0|   -2.304970|    0.652638|    0.394664|    3.168639|    0.489138|    0.010649|
|         219|           0|   -2.317727|    0.649624|    0.396725|    3.154377|    0.489847|    0.010654|
|         220|           0|   -2.332760|    0.647135|    0.399948|    3.137568|    0.490572|    0.010639|
+-----------------------------------------------------------------------+
|        File Writing Summary       |              Filename             |
+-----------------------------------------------------------------------+
|SU2 restart                        |solution_flow.dat                  |
|Paraview                           |flow.vtu                           |
|Paraview surface                   |surface_flow.vtu                   |
+-----------------------------------------------------------------------+

Writing the forces breakdown file (forces_breakdown.dat).
+-------------------------------------------------------------------------------------------------------+
|  Inner_Iter|   Time_Iter|    rms[Rho]|   rms[RhoU]|   rms[RhoV]|   rms[RhoE]|          CL|          CD|
+-------------------------------------------------------------------------------------------------------+
|         221|           0|   -2.349466|    0.644812|    0.403444|    3.118676|    0.491288|    0.010603|
|         222|           0|   -2.367301|    0.642421|    0.406453|    3.098159|    0.491997|    0.010550|
|         223|           0|   -2.385292|    0.639640|    0.408290|    3.077059|    0.492675|    0.010479|
|         224|           0|   -2.402565|    0.636346|    0.408405|    3.056444|    0.493325|    0.010395|
|         225|           0|   -2.418149|    0.632335|    0.406354|    3.037496|    0.493926|    0.010298|
|         226|           0|   -2.430871|    0.627419|    0.401793|    3.021731|    0.494481|    0.010194|
|         227|           0|   -2.439865|    0.621914|    0.394518|    3.010718|    0.494971|    0.010084|
|         228|           0|   -2.444167|    0.615964|    0.384434|    3.005286|    0.495407|    0.009974|
|         229|           0|   -2.444189|    0.608217|    0.371191|    3.004761|    0.495774|    0.009864|
|         230|           0|   -2.440302|    0.598507|    0.354636|    3.008957|    0.496078|    0.009761|
+-----------------------------------------------------------------------+
|        File Writing Summary       |              Filename             |
+-----------------------------------------------------------------------+
|SU2 restart                        |solution_flow.dat                  |
|Paraview                           |flow.vtu                           |
|Paraview surface                   |surface_flow.vtu                   |
+-----------------------------------------------------------------------+

Writing the forces breakdown file (forces_breakdown.dat).
+-------------------------------------------------------------------------------------------------------+
|  Inner_Iter|   Time_Iter|    rms[Rho]|   rms[RhoU]|   rms[RhoV]|   rms[RhoE]|          CL|          CD|
+-------------------------------------------------------------------------------------------------------+
|         231|           0|   -2.433352|    0.587219|    0.334695|    3.017117|    0.496310|    0.009664|
|         232|           0|   -2.424196|    0.574644|    0.311398|    3.028275|    0.496482|    0.009579|
|         233|           0|   -2.413782|    0.561051|    0.285053|    3.041113|    0.496587|    0.009506|
|         234|           0|   -2.403608|    0.546681|    0.256007|    3.053903|    0.496641|    0.009450|
|         235|           0|   -2.394576|    0.531886|    0.224898|    3.065590|    0.496638|    0.009408|
|         236|           0|   -2.387440|    0.516989|    0.192917|    3.075215|    0.496597|    0.009386|
|         237|           0|   -2.382743|    0.502277|    0.161781|    3.082189|    0.496511|    0.009380|
|         238|           0|   -2.380766|    0.488161|    0.133811|    3.086228|    0.496401|    0.009394|
|         239|           0|   -2.381691|    0.475065|    0.111940|    3.087092|    0.496263|    0.009423|
|         240|           0|   -2.385663|    0.463302|    0.098624|    3.084596|    0.496120|    0.009472|
+-----------------------------------------------------------------------+
|        File Writing Summary       |              Filename             |
+-----------------------------------------------------------------------+
|SU2 restart                        |solution_flow.dat                  |
|Paraview                           |flow.vtu                           |
|Paraview surface                   |surface_flow.vtu                   |
+-----------------------------------------------------------------------+

Writing the forces breakdown file (forces_breakdown.dat).
+-------------------------------------------------------------------------------------------------------+
|  Inner_Iter|   Time_Iter|    rms[Rho]|   rms[RhoU]|   rms[RhoV]|   rms[RhoE]|          CL|          CD|
+-------------------------------------------------------------------------------------------------------+
|         241|           0|   -2.392729|    0.453057|    0.095197|    3.078665|    0.495967|    0.009533|
|         242|           0|   -2.403185|    0.444450|    0.101097|    3.068981|    0.495823|    0.009610|
|         243|           0|   -2.416553|    0.437561|    0.114280|    3.055973|    0.495687|    0.009696|
|         244|           0|   -2.432787|    0.432234|    0.131965|    3.039580|    0.495579|    0.009792|
|         245|           0|   -2.451447|    0.428120|    0.151542|    3.020169|    0.495494|    0.009892|
|         246|           0|   -2.472111|    0.424892|    0.170967|    2.998083|    0.495449|    0.009997|
|         247|           0|   -2.493964|    0.422127|    0.188724|    2.973975|    0.495438|    0.010100|
|         248|           0|   -2.516230|    0.419521|    0.203886|    2.948564|    0.495478|    0.010203|
|         249|           0|   -2.537862|    0.416736|    0.215862|    2.922927|    0.495557|    0.010298|
|         250|           0|   -2.557557|    0.413446|    0.224344|    2.898535|    0.495689|    0.010387|
+-----------------------------------------------------------------------+
|        File Writing Summary       |              Filename             |
+-----------------------------------------------------------------------+
|SU2 restart                        |solution_flow.dat                  |
|Paraview                           |flow.vtu                           |
|Paraview surface                   |surface_flow.vtu                   |
+-----------------------------------------------------------------------+

Writing the forces breakdown file (forces_breakdown.dat).
+-------------------------------------------------------------------------------------------------------+
|  Inner_Iter|   Time_Iter|    rms[Rho]|   rms[RhoU]|   rms[RhoV]|   rms[RhoE]|          CL|          CD|
+-------------------------------------------------------------------------------------------------------+
|         251|           0|   -2.573810|    0.409397|    0.229211|    2.877214|    0.495863|    0.010463|
|         252|           0|   -2.585504|    0.404302|    0.230352|    2.860646|    0.496093|    0.010528|
|         253|           0|   -2.591752|    0.398005|    0.227712|    2.850434|    0.496362|    0.010577|
|         254|           0|   -2.592466|    0.390350|    0.221291|    2.847210|    0.496682|    0.010611|
|         255|           0|   -2.588388|    0.381371|    0.211086|    2.850482|    0.497035|    0.010625|
|         256|           0|   -2.580917|    0.371103|    0.197107|    2.858711|    0.497432|    0.010622|
|         257|           0|   -2.571451|    0.359506|    0.179367|    2.870087|    0.497849|    0.010598|
|         258|           0|   -2.561284|    0.346711|    0.157935|    2.882928|    0.498297|    0.010557|
|         259|           0|   -2.551618|    0.332897|    0.132870|    2.895682|    0.498754|    0.010496|
|         260|           0|   -2.543186|    0.318369|    0.104300|    2.907368|    0.499229|    0.010419|
+-----------------------------------------------------------------------+
|        File Writing Summary       |              Filename             |
+-----------------------------------------------------------------------+
|SU2 restart                        |solution_flow.dat                  |
|Paraview                           |flow.vtu                           |
|Paraview surface                   |surface_flow.vtu                   |
+-----------------------------------------------------------------------+

Writing the forces breakdown file (forces_breakdown.dat).
+-------------------------------------------------------------------------------------------------------+
|  Inner_Iter|   Time_Iter|    rms[Rho]|   rms[RhoU]|   rms[RhoV]|   rms[RhoE]|          CL|          CD|
+-------------------------------------------------------------------------------------------------------+
|         261|           0|   -2.536657|    0.303476|    0.072580|    2.917148|    0.499700|    0.010325|
|         262|           0|   -2.532524|    0.288681|    0.038245|    2.924411|    0.500173|    0.010217|
|         263|           0|   -2.531144|    0.274438|    0.002259|    2.928755|    0.500626|    0.010095|
|         264|           0|   -2.532703|    0.261227|   -0.033927|    2.929945|    0.501068|    0.009964|
|         265|           0|   -2.537297|    0.249436|   -0.068208|    2.927816|    0.501478|    0.009824|
|         266|           0|   -2.544919|    0.239416|   -0.097955|    2.922328|    0.501864|    0.009680|
|         267|           0|   -2.555495|    0.231390|   -0.120217|    2.913501|    0.502207|    0.009532|
|         268|           0|   -2.568972|    0.225381|   -0.133068|    2.901395|    0.502517|    0.009385|
|         269|           0|   -2.585349|    0.221273|   -0.136235|    2.885965|    0.502777|    0.009238|
|         270|           0|   -2.604177|    0.218783|   -0.131063|    2.867531|    0.502994|    0.009099|
+-----------------------------------------------------------------------+
|        File Writing Summary       |              Filename             |
+-----------------------------------------------------------------------+
|SU2 restart                        |solution_flow.dat                  |
|Paraview                           |flow.vtu                           |
|Paraview surface                   |surface_flow.vtu                   |
+-----------------------------------------------------------------------+

Writing the forces breakdown file (forces_breakdown.dat).
+-------------------------------------------------------------------------------------------------------+
|  Inner_Iter|   Time_Iter|    rms[Rho]|   rms[RhoU]|   rms[RhoV]|   rms[RhoE]|          CL|          CD|
+-------------------------------------------------------------------------------------------------------+
|         271|           0|   -2.625033|    0.217560|   -0.119901|    2.846382|    0.503155|    0.008965|
|         272|           0|   -2.647195|    0.217228|   -0.105471|    2.823083|    0.503274|    0.008842|
|         273|           0|   -2.670027|    0.217327|   -0.090076|    2.798045|    0.503337|    0.008728|
|         274|           0|   -2.692674|    0.217432|   -0.075404|    2.771960|    0.503357|    0.008630|
|         275|           0|   -2.714081|    0.217186|   -0.062599|    2.745798|    0.503324|    0.008544|
|         276|           0|   -2.733066|    0.216272|   -0.052360|    2.720788|    0.503256|    0.008476|
|         277|           0|   -2.748738|    0.214436|   -0.045050|    2.698123|    0.503142|    0.008422|
|         278|           0|   -2.760839|    0.211661|   -0.040821|    2.678574|    0.503000|    0.008387|
|         279|           0|   -2.768344|    0.207616|   -0.039766|    2.663873|    0.502820|    0.008368|
|         280|           0|   -2.771613|    0.202240|   -0.041895|    2.654466|    0.502625|    0.008367|
+-----------------------------------------------------------------------+
|        File Writing Summary       |              Filename             |
+-----------------------------------------------------------------------+
|SU2 restart                        |solution_flow.dat                  |
|Paraview                           |flow.vtu                           |
|Paraview surface                   |surface_flow.vtu                   |
+-----------------------------------------------------------------------+

Writing the forces breakdown file (forces_breakdown.dat).
+-------------------------------------------------------------------------------------------------------+
|  Inner_Iter|   Time_Iter|    rms[Rho]|   rms[RhoU]|   rms[RhoV]|   rms[RhoE]|          CL|          CD|
+-------------------------------------------------------------------------------------------------------+
|         281|           0|   -2.771335|    0.195466|   -0.047066|    2.650162|    0.502406|    0.008381|
|         282|           0|   -2.768499|    0.187348|   -0.055165|    2.650235|    0.502182|    0.008412|
|         283|           0|   -2.764250|    0.177942|   -0.066053|    2.653524|    0.501946|    0.008457|
|         284|           0|   -2.759540|    0.167251|   -0.079524|    2.658726|    0.501722|    0.008516|
|         285|           0|   -2.755214|    0.155356|   -0.095357|    2.664651|    0.501499|    0.008585|
|         286|           0|   -2.751932|    0.142341|   -0.113284|    2.670305|    0.501297|    0.008666|
|         287|           0|   -2.749989|    0.128292|   -0.132972|    2.675197|    0.501108|    0.008753|
|         288|           0|   -2.749703|    0.113363|   -0.153950|    2.678828|    0.500955|    0.008849|
|         289|           0|   -2.750959|    0.097742|   -0.175729|    2.681166|    0.500825|    0.008948|
|         290|           0|   -2.754001|    0.081655|   -0.197623|    2.681830|    0.500737|    0.009051|
+-----------------------------------------------------------------------+
|        File Writing Summary       |              Filename             |
+-----------------------------------------------------------------------+
|SU2 restart                        |solution_flow.dat                  |
|Paraview                           |flow.vtu                           |
|Paraview surface                   |surface_flow.vtu                   |
+-----------------------------------------------------------------------+

Writing the forces breakdown file (forces_breakdown.dat).
+-------------------------------------------------------------------------------------------------------+
|  Inner_Iter|   Time_Iter|    rms[Rho]|   rms[RhoU]|   rms[RhoV]|   rms[RhoE]|          CL|          CD|
+-------------------------------------------------------------------------------------------------------+
|         291|           0|   -2.758937|    0.065335|   -0.218858|    2.680616|    0.500680|    0.009152|
|         292|           0|   -2.765626|    0.049008|   -0.238543|    2.677599|    0.500674|    0.009254|
|         293|           0|   -2.773770|    0.032956|   -0.255859|    2.673055|    0.500702|    0.009351|
|         294|           0|   -2.783243|    0.017472|   -0.270024|    2.667046|    0.500781|    0.009445|
|         295|           0|   -2.793735|    0.002859|   -0.280282|    2.659843|    0.500897|    0.009530|
|         296|           0|   -2.804831|   -0.010589|   -0.286303|    2.651788|    0.501064|    0.009610|
|         297|           0|   -2.816178|   -0.022639|   -0.288160|    2.643138|    0.501264|    0.009679|
|         298|           0|   -2.827303|   -0.033132|   -0.286248|    2.634260|    0.501509|    0.009739|
|         299|           0|   -2.837916|   -0.041899|   -0.281211|    2.625345|    0.501781|    0.009787|
|         300|           0|   -2.847607|   -0.048871|   -0.273808|    2.616720|    0.502095|    0.009825|
+-----------------------------------------------------------------------+
|        File Writing Summary       |              Filename             |
+-----------------------------------------------------------------------+
|SU2 restart                        |solution_flow.dat                  |
|Paraview                           |flow.vtu                           |
|Paraview surface                   |surface_flow.vtu                   |
+-----------------------------------------------------------------------+

Writing the forces breakdown file (forces_breakdown.dat).
+-------------------------------------------------------------------------------------------------------+
|  Inner_Iter|   Time_Iter|    rms[Rho]|   rms[RhoU]|   rms[RhoV]|   rms[RhoE]|          CL|          CD|
+-------------------------------------------------------------------------------------------------------+
|         301|           0|   -2.856105|   -0.054079|   -0.264781|    2.608593|    0.502429|    0.009849|
|         302|           0|   -2.863191|   -0.057597|   -0.254814|    2.601133|    0.502792|    0.009863|
|         303|           0|   -2.868822|   -0.059535|   -0.244480|    2.594443|    0.503166|    0.009864|
|         304|           0|   -2.873107|   -0.060079|   -0.234252|    2.588478|    0.503561|    0.009854|
|         305|           0|   -2.876213|   -0.059462|   -0.224466|    2.583159|    0.503954|    0.009832|
|         306|           0|   -2.878354|   -0.057921|   -0.215380|    2.578372|    0.504355|    0.009801|
|         307|           0|   -2.879837|   -0.055699|   -0.207181|    2.573972|    0.504744|    0.009758|
|         308|           0|   -2.880981|   -0.053028|   -0.199996|    2.569783|    0.505132|    0.009709|
|         309|           0|   -2.882099|   -0.050137|   -0.193937|    2.565617|    0.505497|    0.009650|
|         310|           0|   -2.883445|   -0.047210|   -0.189086|    2.561356|    0.505853|    0.009585|
+-----------------------------------------------------------------------+
|        File Writing Summary       |              Filename             |
+-----------------------------------------------------------------------+
|SU2 restart                        |solution_flow.dat                  |
|Paraview                           |flow.vtu                           |
|Paraview surface                   |surface_flow.vtu                   |
+-----------------------------------------------------------------------+

Writing the forces breakdown file (forces_breakdown.dat).
+-------------------------------------------------------------------------------------------------------+
|  Inner_Iter|   Time_Iter|    rms[Rho]|   rms[RhoU]|   rms[RhoV]|   rms[RhoE]|          CL|          CD|
+-------------------------------------------------------------------------------------------------------+
|         311|           0|   -2.885188|   -0.044432|   -0.185517|    2.556933|    0.506175|    0.009514|
|         312|           0|   -2.887454|   -0.041950|   -0.183305|    2.552328|    0.506478|    0.009440|
|         313|           0|   -2.890302|   -0.039947|   -0.182503|    2.547557|    0.506742|    0.009360|
|         314|           0|   -2.893740|   -0.038524|   -0.183167|    2.542697|    0.506982|    0.009281|
|         315|           0|   -2.897845|   -0.037773|   -0.185352|    2.537737|    0.507178|    0.009198|
|         316|           0|   -2.902604|   -0.037771|   -0.189097|    2.532786|    0.507347|    0.009118|
|         317|           0|   -2.907805|   -0.038570|   -0.194446|    2.528033|    0.507471|    0.009037|
|         318|           0|   -2.913310|   -0.040239|   -0.201413|    2.523615|    0.507566|    0.008960|
|         319|           0|   -2.918885|   -0.042791|   -0.210015|    2.519767|    0.507616|    0.008884|
|         320|           0|   -2.924303|   -0.046217|   -0.220206|    2.516662|    0.507641|    0.008814|
+-----------------------------------------------------------------------+
|        File Writing Summary       |              Filename             |
+-----------------------------------------------------------------------+
|SU2 restart                        |solution_flow.dat                  |
|Paraview                           |flow.vtu                           |
|Paraview surface                   |surface_flow.vtu                   |
+-----------------------------------------------------------------------+

Writing the forces breakdown file (forces_breakdown.dat).
+-------------------------------------------------------------------------------------------------------+
|  Inner_Iter|   Time_Iter|    rms[Rho]|   rms[RhoU]|   rms[RhoV]|   rms[RhoE]|          CL|          CD|
+-------------------------------------------------------------------------------------------------------+
|         321|           0|   -2.929300|   -0.050415|   -0.231930|    2.514519|    0.507626|    0.008748|
|         322|           0|   -2.933679|   -0.055306|   -0.245097|    2.513413|    0.507589|    0.008688|
|         323|           0|   -2.937442|   -0.060772|   -0.259536|    2.513161|    0.507517|    0.008633|
|         324|           0|   -2.940483|   -0.066659|   -0.274993|    2.513689|    0.507429|    0.008586|
|         325|           0|   -2.942889|   -0.072793|   -0.291054|    2.514732|    0.507313|    0.008543|
|         326|           0|   -2.944789|   -0.078972|   -0.307158|    2.516003|    0.507189|    0.008510|
|         327|           0|   -2.946213|   -0.084930|   -0.322624|    2.517341|    0.507045|    0.008481|
|         328|           0|   -2.947281|   -0.090473|   -0.336750|    2.518491|    0.506903|    0.008461|
|         329|           0|   -2.948281|   -0.095388|   -0.348706|    2.519084|    0.506748|    0.008445|
|         330|           0|   -2.949418|   -0.099492|   -0.357691|    2.518856|    0.506601|    0.008439|
+-----------------------------------------------------------------------+
|        File Writing Summary       |              Filename             |
+-----------------------------------------------------------------------+
|SU2 restart                        |solution_flow.dat                  |
|Paraview                           |flow.vtu                           |
|Paraview surface                   |surface_flow.vtu                   |
+-----------------------------------------------------------------------+

Writing the forces breakdown file (forces_breakdown.dat).
+-------------------------------------------------------------------------------------------------------+
|  Inner_Iter|   Time_Iter|    rms[Rho]|   rms[RhoU]|   rms[RhoV]|   rms[RhoE]|          CL|          CD|
+-------------------------------------------------------------------------------------------------------+
|         331|           0|   -2.950954|   -0.102662|   -0.363098|    2.517521|    0.506448|    0.008436|
|         332|           0|   -2.952891|   -0.104815|   -0.364579|    2.515057|    0.506311|    0.008442|
|         333|           0|   -2.955462|   -0.105943|   -0.362164|    2.511234|    0.506176|    0.008450|
|         334|           0|   -2.958694|   -0.106097|   -0.356262|    2.506039|    0.506064|    0.008466|
|         335|           0|   -2.962733|   -0.105426|   -0.347535|    2.499353|    0.505961|    0.008485|
|         336|           0|   -2.967527|   -0.104134|   -0.336831|    2.491255|    0.505886|    0.008509|
|         337|           0|   -2.973054|   -0.102469|   -0.325032|    2.481811|    0.505824|    0.008534|
|         338|           0|   -2.979269|   -0.100758|   -0.312949|    2.471118|    0.505793|    0.008565|
|         339|           0|   -2.986053|   -0.099216|   -0.301290|    2.459442|    0.505778|    0.008595|
|         340|           0|   -2.993120|   -0.098141|   -0.290617|    2.447193|    0.505796|    0.008629|
+-----------------------------------------------------------------------+
|        File Writing Summary       |              Filename             |
+-----------------------------------------------------------------------+
|SU2 restart                        |solution_flow.dat                  |
|Paraview                           |flow.vtu                           |
|Paraview surface                   |surface_flow.vtu                   |
+-----------------------------------------------------------------------+

Writing the forces breakdown file (forces_breakdown.dat).
+-------------------------------------------------------------------------------------------------------+
|  Inner_Iter|   Time_Iter|    rms[Rho]|   rms[RhoU]|   rms[RhoV]|   rms[RhoE]|          CL|          CD|
+-------------------------------------------------------------------------------------------------------+
|         341|           0|   -3.000261|   -0.097829|   -0.281393|    2.434763|    0.505831|    0.008663|
|         342|           0|   -3.007134|   -0.098508|   -0.273956|    2.422759|    0.505896|    0.008699|
|         343|           0|   -3.013397|   -0.100334|   -0.268559|    2.411879|    0.505977|    0.008733|
|         344|           0|   -3.018767|   -0.103474|   -0.265366|    2.402755|    0.506088|    0.008768|
[...]
|         905|           0|   -4.211067|   -2.114209|   -2.183125|    1.251796|    0.515344|    0.008138|
|         906|           0|   -4.208508|   -2.112458|   -2.180711|    1.254597|    0.515350|    0.008138|
|         907|           0|   -4.213275|   -2.113356|   -2.184400|    1.249956|    0.515348|    0.008138|
|         908|           0|   -4.210959|   -2.107954|   -2.175365|    1.252576|    0.515352|    0.008138|
|         909|           0|   -4.213689|   -2.096146|   -2.176703|    1.250155|    0.515350|    0.008137|
|         910|           0|   -4.211907|   -2.076994|   -2.172443|    1.252725|    0.515356|    0.008138|
+-----------------------------------------------------------------------+
|        File Writing Summary       |              Filename             |
+-----------------------------------------------------------------------+
|SU2 restart                        |solution_flow.dat                  |
|Paraview                           |flow.vtu                           |
|Paraview surface                   |surface_flow.vtu                   |
+-----------------------------------------------------------------------+

Writing the forces breakdown file (forces_breakdown.dat).
+-------------------------------------------------------------------------------------------------------+
|  Inner_Iter|   Time_Iter|    rms[Rho]|   rms[RhoU]|   rms[RhoV]|   rms[RhoE]|          CL|          CD|
+-------------------------------------------------------------------------------------------------------+
|         911|           0|   -4.211271|   -2.075741|   -2.177345|    1.253534|    0.515352|    0.008137|
|         912|           0|   -4.210622|   -2.088300|   -2.178196|    1.253749|    0.515358|    0.008139|
|         913|           0|   -4.214452|   -2.099638|   -2.185311|    1.249482|    0.515355|    0.008138|
|         914|           0|   -4.215939|   -2.108232|   -2.191569|    1.247725|    0.515359|    0.008140|
|         915|           0|   -4.220277|   -2.117319|   -2.197684|    1.243034|    0.515356|    0.008139|
|         916|           0|   -4.215187|   -2.119720|   -2.188834|    1.247990|    0.515360|    0.008140|
|         917|           0|   -4.215220|   -2.121992|   -2.192068|    1.247806|    0.515357|    0.008140|
|         918|           0|   -4.217539|   -2.125498|   -2.195517|    1.245461|    0.515361|    0.008141|
|         919|           0|   -4.217729|   -2.131037|   -2.194587|    1.245115|    0.515359|    0.008140|
|         920|           0|   -4.211860|   -2.131245|   -2.183909|    1.251024|    0.515363|    0.008141|
+-----------------------------------------------------------------------+
|        File Writing Summary       |              Filename             |
+-----------------------------------------------------------------------+
|SU2 restart                        |solution_flow.dat                  |
|Paraview                           |flow.vtu                           |
|Paraview surface                   |surface_flow.vtu                   |
+-----------------------------------------------------------------------+

Writing the forces breakdown file (forces_breakdown.dat).
+-------------------------------------------------------------------------------------------------------+
|  Inner_Iter|   Time_Iter|    rms[Rho]|   rms[RhoU]|   rms[RhoV]|   rms[RhoE]|          CL|          CD|
+-------------------------------------------------------------------------------------------------------+
|         921|           0|   -4.216831|   -2.131883|   -2.202394|    1.246003|    0.515361|    0.008140|
|         922|           0|   -4.223020|   -2.138310|   -2.209688|    1.239736|    0.515365|    0.008141|
|         923|           0|   -4.222284|   -2.144217|   -2.202703|    1.240338|    0.515361|    0.008140|
|         924|           0|   -4.205661|   -2.135643|   -2.183386|    1.257270|    0.515367|    0.008141|
|         925|           0|   -4.211802|   -2.139558|   -2.194060|    1.251108|    0.515365|    0.008140|
|         926|           0|   -4.219556|   -2.148190|   -2.204367|    1.243331|    0.515369|    0.008141|
|         927|           0|   -4.220933|   -2.150628|   -2.213505|    1.241915|    0.515364|    0.008140|
|         928|           0|   -4.212794|   -2.147176|   -2.199819|    1.250230|    0.515368|    0.008141|
|         929|           0|   -4.213956|   -2.149541|   -2.199109|    1.249125|    0.515363|    0.008140|
|         930|           0|   -4.214719|   -2.149998|   -2.201177|    1.248391|    0.515367|    0.008141|
+-----------------------------------------------------------------------+
|        File Writing Summary       |              Filename             |
+-----------------------------------------------------------------------+
|SU2 restart                        |solution_flow.dat                  |
|Paraview                           |flow.vtu                           |
|Paraview surface                   |surface_flow.vtu                   |
+-----------------------------------------------------------------------+

Writing the forces breakdown file (forces_breakdown.dat).
+-------------------------------------------------------------------------------------------------------+
|  Inner_Iter|   Time_Iter|    rms[Rho]|   rms[RhoU]|   rms[RhoV]|   rms[RhoE]|          CL|          CD|
+-------------------------------------------------------------------------------------------------------+
|         931|           0|   -4.213086|   -2.149751|   -2.197313|    1.250039|    0.515363|    0.008140|
|         932|           0|   -4.207925|   -2.137493|   -2.184857|    1.255824|    0.515366|    0.008141|
|         933|           0|   -4.213244|   -2.121675|   -2.198916|    1.251323|    0.515362|    0.008140|
|         934|           0|   -4.215806|   -2.113148|   -2.200907|    1.249530|    0.515363|    0.008141|
|         935|           0|   -4.216550|   -2.113883|   -2.196883|    1.249131|    0.515357|    0.008141|
|         936|           0|   -4.208726|   -2.115662|   -2.184355|    1.256809|    0.515362|    0.008141|
|         937|           0|   -4.207844|   -2.129175|   -2.186617|    1.256510|    0.515358|    0.008140|
|         938|           0|   -4.214403|   -2.143746|   -2.195301|    1.249338|    0.515363|    0.008141|
|         939|           0|   -4.219224|   -2.154161|   -2.205311|    1.244023|    0.515360|    0.008139|
|         940|           0|   -4.208990|   -2.153213|   -2.190307|    1.254103|    0.515365|    0.008140|
+-----------------------------------------------------------------------+
|        File Writing Summary       |              Filename             |
+-----------------------------------------------------------------------+
|SU2 restart                        |solution_flow.dat                  |
|Paraview                           |flow.vtu                           |
|Paraview surface                   |surface_flow.vtu                   |
+-----------------------------------------------------------------------+

Writing the forces breakdown file (forces_breakdown.dat).
+-------------------------------------------------------------------------------------------------------+
|  Inner_Iter|   Time_Iter|    rms[Rho]|   rms[RhoU]|   rms[RhoV]|   rms[RhoE]|          CL|          CD|
+-------------------------------------------------------------------------------------------------------+
|         941|           0|   -4.212168|   -2.153191|   -2.193498|    1.250810|    0.515361|    0.008139|
|         942|           0|   -4.216060|   -2.151511|   -2.199725|    1.246984|    0.515366|    0.008139|
|         943|           0|   -4.211553|   -2.144781|   -2.189712|    1.251501|    0.515362|    0.008138|
|         944|           0|   -4.207145|   -2.129964|   -2.178355|    1.256218|    0.515369|    0.008139|
|         945|           0|   -4.209953|   -2.104595|   -2.190864|    1.254521|    0.515367|    0.008137|
|         946|           0|   -4.211599|   -2.121326|   -2.196918|    1.252446|    0.515371|    0.008138|
|         947|           0|   -4.214162|   -2.137230|   -2.193477|    1.249463|    0.515367|    0.008137|
|         948|           0|   -4.205386|   -2.139790|   -2.191338|    1.258248|    0.515371|    0.008138|
|         949|           0|   -4.211719|   -2.145781|   -2.204796|    1.252004|    0.515368|    0.008137|
|         950|           0|   -4.214997|   -2.153832|   -2.205257|    1.248814|    0.515371|    0.008138|
+-----------------------------------------------------------------------+
|        File Writing Summary       |              Filename             |
+-----------------------------------------------------------------------+
|SU2 restart                        |solution_flow.dat                  |
|Paraview                           |flow.vtu                           |
|Paraview surface                   |surface_flow.vtu                   |
+-----------------------------------------------------------------------+

Writing the forces breakdown file (forces_breakdown.dat).
+-------------------------------------------------------------------------------------------------------+
|  Inner_Iter|   Time_Iter|    rms[Rho]|   rms[RhoU]|   rms[RhoV]|   rms[RhoE]|          CL|          CD|
+-------------------------------------------------------------------------------------------------------+
|         951|           0|   -4.219161|   -2.158302|   -2.203427|    1.244472|    0.515367|    0.008137|
|         952|           0|   -4.207335|   -2.153047|   -2.189259|    1.256233|    0.515373|    0.008138|
|         953|           0|   -4.209096|   -2.152630|   -2.196718|    1.254359|    0.515371|    0.008137|
|         954|           0|   -4.216290|   -2.158916|   -2.211782|    1.247069|    0.515375|    0.008138|
|         955|           0|   -4.222452|   -2.167170|   -2.220128|    1.240710|    0.515371|    0.008138|
|         956|           0|   -4.218195|   -2.167215|   -2.210830|    1.244873|    0.515377|    0.008139|
|         957|           0|   -4.212944|   -2.163163|   -2.208744|    1.250105|    0.515374|    0.008138|
|         958|           0|   -4.212415|   -2.165608|   -2.207652|    1.250639|    0.515379|    0.008139|
|         959|           0|   -4.218631|   -2.172583|   -2.214107|    1.244291|    0.515377|    0.008138|
|         960|           0|   -4.215738|   -2.171963|   -2.214410|    1.247264|    0.515381|    0.008139|
+-----------------------------------------------------------------------+
|        File Writing Summary       |              Filename             |
+-----------------------------------------------------------------------+
|SU2 restart                        |solution_flow.dat                  |
|Paraview                           |flow.vtu                           |
|Paraview surface                   |surface_flow.vtu                   |
+-----------------------------------------------------------------------+

Writing the forces breakdown file (forces_breakdown.dat).
+-------------------------------------------------------------------------------------------------------+
|  Inner_Iter|   Time_Iter|    rms[Rho]|   rms[RhoU]|   rms[RhoV]|   rms[RhoE]|          CL|          CD|
+-------------------------------------------------------------------------------------------------------+
|         961|           0|   -4.218275|   -2.172484|   -2.221111|    1.244659|    0.515378|    0.008138|
|         962|           0|   -4.218122|   -2.174693|   -2.217275|    1.244797|    0.515382|    0.008140|
|         963|           0|   -4.218032|   -2.176558|   -2.219115|    1.244854|    0.515378|    0.008139|
|         964|           0|   -4.215561|   -2.174962|   -2.215922|    1.247442|    0.515383|    0.008139|
|         965|           0|   -4.216429|   -2.172152|   -2.219433|    1.246533|    0.515379|    0.008138|
|         966|           0|   -4.213973|   -2.164430|   -2.214067|    1.249215|    0.515382|    0.008139|
|         967|           0|   -4.216752|   -2.153712|   -2.217744|    1.246887|    0.515377|    0.008138|
|         968|           0|   -4.215357|   -2.137853|   -2.212162|    1.249058|    0.515380|    0.008139|
|         969|           0|   -4.212595|   -2.126806|   -2.210065|    1.252317|    0.515376|    0.008139|
|         970|           0|   -4.198765|   -2.122872|   -2.194449|    1.266318|    0.515379|    0.008140|
+-----------------------------------------------------------------------+
|        File Writing Summary       |              Filename             |
+-----------------------------------------------------------------------+
|SU2 restart                        |solution_flow.dat                  |
|Paraview                           |flow.vtu                           |
|Paraview surface                   |surface_flow.vtu                   |
+-----------------------------------------------------------------------+

Writing the forces breakdown file (forces_breakdown.dat).
+-------------------------------------------------------------------------------------------------------+
|  Inner_Iter|   Time_Iter|    rms[Rho]|   rms[RhoU]|   rms[RhoV]|   rms[RhoE]|          CL|          CD|
+-------------------------------------------------------------------------------------------------------+
|         971|           0|   -4.213085|   -2.145248|   -2.210729|    1.250939|    0.515376|    0.008139|
|         972|           0|   -4.217931|   -2.162845|   -2.221401|    1.245431|    0.515380|    0.008140|
|         973|           0|   -4.215351|   -2.167908|   -2.220283|    1.247746|    0.515378|    0.008139|
|         974|           0|   -4.205613|   -2.167863|   -2.203752|    1.257528|    0.515382|    0.008139|
|         975|           0|   -4.216006|   -2.177985|   -2.217573|    1.247120|    0.515380|    0.008138|
|         976|           0|   -4.219940|   -2.178020|   -2.220547|    1.243375|    0.515384|    0.008139|
|         977|           0|   -4.216081|   -2.166216|   -2.213064|    1.247518|    0.515381|    0.008138|
|         978|           0|   -4.200479|   -2.143894|   -2.187139|    1.263751|    0.515386|    0.008138|
|         979|           0|   -4.205559|   -2.130764|   -2.192577|    1.258833|    0.515381|    0.008137|
|         980|           0|   -4.208267|   -2.118030|   -2.196912|    1.256643|    0.515386|    0.008138|
+-----------------------------------------------------------------------+
|        File Writing Summary       |              Filename             |
+-----------------------------------------------------------------------+
|SU2 restart                        |solution_flow.dat                  |
|Paraview                           |flow.vtu                           |
|Paraview surface                   |surface_flow.vtu                   |
+-----------------------------------------------------------------------+

Writing the forces breakdown file (forces_breakdown.dat).
+-------------------------------------------------------------------------------------------------------+
|  Inner_Iter|   Time_Iter|    rms[Rho]|   rms[RhoU]|   rms[RhoV]|   rms[RhoE]|          CL|          CD|
+-------------------------------------------------------------------------------------------------------+
|         981|           0|   -4.210509|   -2.133055|   -2.206697|    1.253772|    0.515383|    0.008136|
|         982|           0|   -4.204686|   -2.142778|   -2.202939|    1.259222|    0.515385|    0.008137|
|         983|           0|   -4.215331|   -2.160710|   -2.219933|    1.248174|    0.515380|    0.008136|
|         984|           0|   -4.222514|   -2.172934|   -2.230084|    1.240812|    0.515382|    0.008137|
|         985|           0|   -4.217065|   -2.174922|   -2.226496|    1.246104|    0.515376|    0.008137|
|         986|           0|   -4.204181|   -2.173627|   -2.206287|    1.258842|    0.515379|    0.008138|
|         987|           0|   -4.214378|   -2.185066|   -2.220869|    1.248390|    0.515376|    0.008137|
|         988|           0|   -4.214509|   -2.190037|   -2.219008|    1.248236|    0.515381|    0.008138|
|         989|           0|   -4.211266|   -2.185374|   -2.217587|    1.251608|    0.515378|    0.008137|
|         990|           0|   -4.204080|   -2.177884|   -2.211617|    1.259166|    0.515383|    0.008138|
+-----------------------------------------------------------------------+
|        File Writing Summary       |              Filename             |
+-----------------------------------------------------------------------+
|SU2 restart                        |solution_flow.dat                  |
|Paraview                           |flow.vtu                           |
|Paraview surface                   |surface_flow.vtu                   |
+-----------------------------------------------------------------------+

Writing the forces breakdown file (forces_breakdown.dat).
+-------------------------------------------------------------------------------------------------------+
|  Inner_Iter|   Time_Iter|    rms[Rho]|   rms[RhoU]|   rms[RhoV]|   rms[RhoE]|          CL|          CD|
+-------------------------------------------------------------------------------------------------------+
|         991|           0|   -4.216562|   -2.187053|   -2.223752|    1.246672|    0.515379|    0.008136|
|         992|           0|   -4.213835|   -2.185882|   -2.216310|    1.249555|    0.515382|    0.008138|
|         993|           0|   -4.216566|   -2.183414|   -2.216361|    1.246921|    0.515380|    0.008137|
|         994|           0|   -4.211239|   -2.180788|   -2.211262|    1.252298|    0.515385|    0.008138|
|         995|           0|   -4.213054|   -2.184362|   -2.214651|    1.250319|    0.515381|    0.008137|
|         996|           0|   -4.216746|   -2.187291|   -2.221091|    1.246541|    0.515387|    0.008138|
|         997|           0|   -4.218994|   -2.188665|   -2.227577|    1.244187|    0.515384|    0.008138|
|         998|           0|   -4.215375|   -2.189801|   -2.219877|    1.247762|    0.515388|    0.008139|
|         999|           0|   -4.219310|   -2.193841|   -2.223608|    1.243759|    0.515386|    0.008138|

----------------------------- Solver Exit -------------------------------

Maximum number of iterations reached (ITER = 1000) before convergence.
+-----------------------------------------------------------------------+
|      Convergence Field     |     Value    |   Criterion  |  Converged |
+-----------------------------------------------------------------------+
|                  Cauchy[CD]|   0.000115397|       < 1e-10|          No|
+-----------------------------------------------------------------------+
-------------------------------------------------------------------------
+-----------------------------------------------------------------------+
|        File Writing Summary       |              Filename             |
+-----------------------------------------------------------------------+
|SU2 restart                        |solution_flow.dat                  |
|Paraview                           |flow.vtu                           |
|Paraview surface                   |surface_flow.vtu                   |
+-----------------------------------------------------------------------+

Writing the forces breakdown file (forces_breakdown.dat).

------------------------- Solver Postprocessing -------------------------
Deleted CNumerics container.
Deleted CIntegration container.
Deleted CSolver container.
Deleted CIteration container.
Deleted CInterpolator container.
Deleted CInterface container.
Deleted CGeometry container.
Deleted CFreeFormDefBox class.
Deleted CSurfaceMovement class.
Deleted CVolumetricMovement class.
Deleted CConfig container.
Deleted nInst container.
Deleted COutput class.
-------------------------------------------------------------------------

------------------------- Exit Success (SU2_CFD) ------------------------

