
-------------------------------------------------------------------------
|    ___ _   _ ___                                                      |
|   / __| | | |_  )   Release 7.0.3 "Blackbird"                       |
|   \__ \ |_| |/ /                                                    |
|   |___/\___//___|   Suite (Computational Fluid Dynamics Code)        |
|                                                                       |
-------------------------------------------------------------------------
| SU2 Project Website: https://su2code.github.io                        |
|                                                                       |
| The SU2 Project is maintained by the SU2 Foundation                   |
| (http://su2foundation.org)                                            |
-------------------------------------------------------------------------
| Copyright 2012-2020, SU2 Contributors                                 |
|                                                                       |
| SU2 is free software; you can redistribute it and/or                  |
| modify it under the terms of the GNU Lesser General Public            |
| License as published by the Free Software Foundation; either          |
| version 2.1 of the License, or (at your option) any later version.    |
|                                                                       |
| SU2 is distributed in the hope that it will be useful,                |
| but WITHOUT ANY WARRANTY; without even the implied warranty of        |
| MERCHANTABILITY or FITNESS FOR A PARTICULAR PURPOSE. See the GNU      |
| Lesser General Public License for more details.                       |
|                                                                       |
| You should have received a copy of the GNU Lesser General Public      |
| License along with SU2. If not, see <http://www.gnu.org/licenses/>.   |
-------------------------------------------------------------------------


Problem definition:

Compressible Euler equations.
Mach number: 0.37.
Angle of attack (AoA): -6.4 deg, and angle of sideslip (AoS): 0 deg.
Dimensional simulation.
The reference area is 55.7983 m^2.
The reference length is 1.8008 m.


Problem definition:

Inviscid flow: Computing density based on free-stream
temperature and pressure using the ideal gas law.
Force coefficients computed using free-stream values.
-- Input conditions:
Fluid Model: STANDARD_AIR 
Specific gas constant: 287.058 N.m/kg.K.
Specific gas constant (non-dim): 287.058
Specific Heat Ratio: 1.4000 
Free-stream static pressure: 101325 Pa.
Free-stream total pressure: 111372 Pa.
Free-stream temperature: 288.15 K.
Free-stream total temperature: 296.04 K.
Free-stream density: 1.22498 kg/m^3.
Free-stream velocity: (125.125, 0, -14.035) m/s. Magnitude: 125.91 m/s.
Free-stream total energy per unit mass: 214716 m^2/s^2.
-- Reference values:
Reference specific gas constant: 1 N.m/kg.K.
Reference pressure: 1 Pa.
Reference temperature: 1 K.
Reference density: 1 kg/m^3.
Reference velocity: 1 m/s.
Reference energy per unit mass: 1 m^2/s^2.
-- Resulting non-dimensional state:
Mach number (non-dim): 0.37
Specific gas constant (non-dim): 287.058
Free-stream temperature (non-dim): 288.15
Free-stream pressure (non-dim): 101325
Free-stream density (non-dim): 1.22498
Free-stream velocity (non-dim): (125.125, 0, -14.035). Magnitude: 125.91
Free-stream total energy per unit mass (non-dim): 214716


Forces breakdown:

Center of Pressure: X=-0.025341Z+11.021784 m.

NOTE: Multiply forces by the non-dimensional factor: 541800.084093, and the reference factor: 1.000000
to obtain the dimensional force.

Total CL:      -0.421830 | Pressure (  100%):   -0.421830 | Friction (    0%):    0.000000 | Momentum (    0%):    0.000000
Total CD:       0.058171 | Pressure (   99%):    0.058171 | Friction (    0%):    0.000000 | Momentum (    0%):    0.000000
Total CSF:     -0.000732 | Pressure (  100%):   -0.000732 | Friction (    0%):    0.000000 | Momentum (    0%):    0.000000
Total CL/CD:   -7.251605 | Pressure (  100%):   -7.251605 | Friction (    0%):    0.000000 | Momentum (    0%):    0.000000
Total CMx:     -0.011307 | Pressure (  100%):   -0.011307 | Friction (    0%):    0.000000 | Momentum (    0%):    0.000000
Total CMy:      0.318231 | Pressure (   99%):    0.318231 | Friction (    0%):    0.000000 | Momentum (    0%):    0.000000
Total CMz:     -0.001213 | Pressure (  100%):   -0.001213 | Friction (    0%):    0.000000 | Momentum (    0%):    0.000000
Total CFx:      0.010787 | Pressure (   99%):    0.010787 | Friction (    0%):    0.000000 | Momentum (    0%):    0.000000
Total CFy:     -0.000732 | Pressure (  100%):   -0.000732 | Friction (    0%):    0.000000 | Momentum (    0%):    0.000000
Total CFz:     -0.425686 | Pressure (  100%):   -0.425686 | Friction (    0%):    0.000000 | Momentum (    0%):    0.000000


Surface name: VTP

Total CL    (    0%):    0.000499 | Pressure (   99%):    0.000499 | Friction (    0%):    0.000000 | Momentum (    0%):    0.000000
Total CD    (    1%):    0.000788 | Pressure (   99%):    0.000788 | Friction (    0%):    0.000000 | Momentum (    0%):    0.000000
Total CSF   ( -175%):    0.001285 | Pressure (   99%):    0.001285 | Friction (    0%):    0.000000 | Momentum (    0%):    0.000000
Total CL/CD (   -8%):    0.632801 | Pressure (   99%):    0.632801 | Friction (    0%):    0.000000 | Momentum (    0%):    0.000000
Total CMx   (   11%):   -0.001333 | Pressure (  100%):   -0.001333 | Friction (    0%):    0.000000 | Momentum (    0%):    0.000000
Total CMy   (    0%):   -0.000222 | Pressure (  100%):   -0.000222 | Friction (    0%):    0.000000 | Momentum (    0%):    0.000000
Total CMz   ( -321%):    0.003899 | Pressure (   99%):    0.003899 | Friction (    0%):    0.000000 | Momentum (    0%):    0.000000
Total CFx   (    7%):    0.000839 | Pressure (   99%):    0.000839 | Friction (    0%):    0.000000 | Momentum (    0%):    0.000000
Total CFy   ( -175%):    0.001285 | Pressure (   99%):    0.001285 | Friction (    0%):    0.000000 | Momentum (    0%):    0.000000
Total CFz   (    0%):    0.000408 | Pressure (   99%):    0.000408 | Friction (    0%):    0.000000 | Momentum (    0%):    0.000000

Surface name: Fuselage

Total CL    (    3%):   -0.016710 | Pressure (  100%):   -0.016710 | Friction (    0%):    0.000000 | Momentum (    0%):    0.000000
Total CD    (    5%):    0.003425 | Pressure (   99%):    0.003425 | Friction (    0%):    0.000000 | Momentum (    0%):    0.000000
Total CSF   (  -55%):    0.000406 | Pressure (   99%):    0.000406 | Friction (    0%):    0.000000 | Momentum (    0%):    0.000000
Total CL/CD (   67%):   -4.878738 | Pressure (  100%):   -4.878738 | Friction (    0%):    0.000000 | Momentum (    0%):    0.000000
Total CMx   (    0%):   -0.000088 | Pressure (  100%):   -0.000088 | Friction (    0%):    0.000000 | Momentum (    0%):    0.000000
Total CMy   (  -13%):   -0.043325 | Pressure (  100%):   -0.043325 | Friction (    0%):    0.000000 | Momentum (    0%):    0.000000
Total CMz   (  -41%):    0.000498 | Pressure (   99%):    0.000498 | Friction (    0%):    0.000000 | Momentum (    0%):    0.000000
Total CFx   (   14%):    0.001541 | Pressure (   99%):    0.001541 | Friction (    0%):    0.000000 | Momentum (    0%):    0.000000
Total CFy   (  -55%):    0.000406 | Pressure (   99%):    0.000406 | Friction (    0%):    0.000000 | Momentum (    0%):    0.000000
Total CFz   (    3%):   -0.016988 | Pressure (  100%):   -0.016988 | Friction (    0%):    0.000000 | Momentum (    0%):    0.000000

Surface name: HTP

Total CL    (   23%):   -0.098132 | Pressure (  100%):   -0.098132 | Friction (    0%):    0.000000 | Momentum (    0%):    0.000000
Total CD    (   17%):    0.009911 | Pressure (   99%):    0.009911 | Friction (    0%):    0.000000 | Momentum (    0%):    0.000000
Total CSF   (  284%):   -0.002083 | Pressure (  100%):   -0.002083 | Friction (    0%):    0.000000 | Momentum (    0%):    0.000000
Total CL/CD (  136%):   -9.901715 | Pressure (  100%):   -9.901715 | Friction (    0%):    0.000000 | Momentum (    0%):    0.000000
Total CMx   (   -4%):    0.000503 | Pressure (   99%):    0.000503 | Friction (    0%):    0.000000 | Momentum (    0%):    0.000000
Total CMy   (  107%):    0.342006 | Pressure (   99%):    0.342006 | Friction (    0%):    0.000000 | Momentum (    0%):    0.000000
Total CMz   (  596%):   -0.007236 | Pressure (  100%):   -0.007236 | Friction (    0%):    0.000000 | Momentum (    0%):    0.000000
Total CFx   (  -10%):   -0.001090 | Pressure (  100%):   -0.001090 | Friction (    0%):    0.000000 | Momentum (    0%):    0.000000
Total CFy   (  284%):   -0.002083 | Pressure (  100%):   -0.002083 | Friction (    0%):    0.000000 | Momentum (    0%):    0.000000
Total CFz   (   23%):   -0.098625 | Pressure (  100%):   -0.098625 | Friction (    0%):    0.000000 | Momentum (    0%):    0.000000

Surface name: Wing

Total CL    (   72%):   -0.307487 | Pressure (  100%):   -0.307487 | Friction (    0%):    0.000000 | Momentum (    0%):    0.000000
Total CD    (   75%):    0.044047 | Pressure (   99%):    0.044047 | Friction (    0%):    0.000000 | Momentum (    0%):    0.000000
Total CSF   (   46%):   -0.000341 | Pressure (  100%):   -0.000341 | Friction (    0%):    0.000000 | Momentum (    0%):    0.000000
Total CL/CD (   96%):   -6.980900 | Pressure (  100%):   -6.980900 | Friction (    0%):    0.000000 | Momentum (    0%):    0.000000
Total CMx   (   91%):   -0.010388 | Pressure (  100%):   -0.010388 | Friction (    0%):    0.000000 | Momentum (    0%):    0.000000
Total CMy   (    6%):    0.019773 | Pressure (   99%):    0.019773 | Friction (    0%):    0.000000 | Momentum (    0%):    0.000000
Total CMz   ( -134%):    0.001626 | Pressure (   99%):    0.001626 | Friction (    0%):    0.000000 | Momentum (    0%):    0.000000
Total CFx   (   88%):    0.009497 | Pressure (   99%):    0.009497 | Friction (    0%):    0.000000 | Momentum (    0%):    0.000000
Total CFy   (   46%):   -0.000341 | Pressure (  100%):   -0.000341 | Friction (    0%):    0.000000 | Momentum (    0%):    0.000000
Total CFz   (   72%):   -0.310480 | Pressure (  100%):   -0.310480 | Friction (    0%):    0.000000 | Momentum (    0%):    0.000000

