
-------------------------------------------------------------------------
|    ___ _   _ ___                                                      |
|   / __| | | |_  )   Release 7.0.3 "Blackbird"                         |
|   \__ \ |_| |/ /                                                      |
|   |___/\___//___|   Suite (Computational Fluid Dynamics Code)         |
|                                                                       |
-------------------------------------------------------------------------
| SU2 Project Website: https://su2code.github.io                        |
|                                                                       |
| The SU2 Project is maintained by the SU2 Foundation                   |
| (http://su2foundation.org)                                            |
-------------------------------------------------------------------------
| Copyright 2012-2020, SU2 Contributors                                 |
|                                                                       |
| SU2 is free software; you can redistribute it and/or                  |
| modify it under the terms of the GNU Lesser General Public            |
| License as published by the Free Software Foundation; either          |
| version 2.1 of the License, or (at your option) any later version.    |
|                                                                       |
| SU2 is distributed in the hope that it will be useful,                |
| but WITHOUT ANY WARRANTY; without even the implied warranty of        |
| MERCHANTABILITY or FITNESS FOR A PARTICULAR PURPOSE. See the GNU      |
| Lesser General Public License for more details.                       |
|                                                                       |
| You should have received a copy of the GNU Lesser General Public      |
| License along with SU2. If not, see <http://www.gnu.org/licenses/>.   |
-------------------------------------------------------------------------

Parsing config file for zone 0

----------------- Physical Case Definition ( Zone 0 ) -------------------
Compressible Euler equations.
Mach number: 0.37.
Angle of attack (AoA): -6.4 deg, and angle of sideslip (AoS): 0 deg.
No restart solution, use the values at infinity (freestream).
Dimensional simulation.
The reference area is 55.7983 m^2.
The semi-span will be computed using the max y(3D) value.
The reference length is 1.8008 m.
Surface(s) where the force coefficients are evaluated and 
their reference origin for moment computation: 
   - VTP (9.6115, 0, 2.5277).
   - Fuselage (9.6115, 0, 2.5277).
   - HTP (9.6115, 0, 2.5277).
   - Wing (9.6115, 0, 2.5277) m.
Surface(s) where the objective function is evaluated: airfoil.
Surface(s) plotted in the output file: VTP, Fuselage, HTP, Wing.
Surface(s) to be analyzed in detail: airfoil.
Surface(s) affected by the design variables: VTP, Fuselage, HTP, Wing.
Input mesh file name: deformed.su2

--------------- Space Numerical Integration ( Zone 0 ) ------------------
Roe (with entropy fix = 0) solver for the flow inviscid terms.
Roe with DDES's FD low-dissipation function.
Second order integration in space, with slope limiter.
Venkatakrishnan slope-limiting method, with constant: 0.05. 
The reference element size is: 1. 
Gradient for upwind reconstruction: Green-Gauss.
Gradient for viscous and source terms: Green-Gauss.

--------------- Time Numerical Integration  ( Zone 0 ) ------------------
Local time stepping (steady state simulation).
Euler implicit method for the flow equations.
FGMRES is used for solving the linear system.
Using a ILU(0) preconditioning.
Convergence criteria of the linear solver: 1e-06.
Max number of linear iterations: 5.
V Multigrid Cycle, with 3 multigrid levels.
Damping factor for the residual restriction: 0.75.
Damping factor for the correction prolongation: 0.75.
No CFL adaptation.
+-------------------------------------------+
|  MG Level| Presmooth|PostSmooth|CorrectSmo|
+-------------------------------------------+
|         0|         1|         0|         0|
|         1|         2|         0|         0|
|         2|         3|         0|         0|
|         3|         3|         0|         0|
+-------------------------------------------+
Courant-Friedrichs-Lewy number:        1

------------------ Convergence Criteria  ( Zone 0 ) ---------------------
Maximum number of solver subiterations: 1000.
Begin convergence monitoring at iteration 10.
Residual minimum value: 1e-8.
Cauchy series min. value: 1e-10.
Number of Cauchy elements: 100.
Begin windowed time average at iteration 15.

-------------------- Output Information ( Zone 0 ) ----------------------
Writing solution files every 10 iterations.
Writing the convergence history file every 1 inner iterations.
Writing the screen convergence history every 1 inner iterations.
The tabular file format is Tecplot (.dat).
Convergence history file name: history.
Forces breakdown file name: forces_breakdown.dat.
Surface file name: surface_flow.
Volume file name: flow.
Restart file name: solution_flow.dat.

------------- Config File Boundary Information ( Zone 0 ) ---------------
+-----------------------------------------------------------------------+
|                        Marker Type|                        Marker Name|
+-----------------------------------------------------------------------+
|                         Euler wall|                                VTP|
|                                   |                           Fuselage|
|                                   |                                HTP|
|                                   |                               Wing|
+-----------------------------------------------------------------------+
|                          Far-field|                           Farfield|
+-----------------------------------------------------------------------+
|                     Symmetry plane|                                  0|
+-----------------------------------------------------------------------+
|           Deformable mesh boundary|                            airfoil|
+-----------------------------------------------------------------------+

-------------------- Output Preprocessing ( Zone 0 ) --------------------
Screen output fields: INNER_ITER, TIME_ITER, RMS_DENSITY, RMS_MOMENTUM-X, RMS_MOMENTUM-Y, RMS_ENERGY, LIFT, DRAG
  Info: Ignoring the following history output groups:
  TIME_ITER
History output group(s): ITER, RMS_RES, AERO_COEFF
Warning: No (valid) fields chosen for convergence monitoring. Convergence monitoring inactive.
Warning: No (valid) fields chosen for time convergence monitoring. Time convergence monitoring inactive.
Volume output fields: COORDINATES, SOLUTION, PRIMITIVE

------------------- Geometry Preprocessing ( Zone 0 ) -------------------
Three dimensional problem.
134403 grid points before partitioning.
750945 volume elements before partitioning.
5 surface markers.
2298 boundary elements in index 0 (Marker = VTP).
6838 boundary elements in index 1 (Marker = Fuselage).
9046 boundary elements in index 2 (Marker = HTP).
42568 boundary elements in index 3 (Marker = Wing).
1280 boundary elements in index 4 (Marker = Farfield).
Executing the partitioning functions.
Building the graph adjacency structure.
Calling ParMETIS... graph partitioning complete (14371 edge cuts).
Distributing ParMETIS coloring.
Rebalancing vertices.
Rebalancing volume element connectivity.
Rebalancing markers and surface elements.
142496 vertices including ghost points. 
772621 interior elements including halo cells. 
772621 tetrahedra.
Establishing MPI communication patterns.
Setting point connectivity.
Renumbering points (Reverse Cuthill McKee Ordering).
Recomputing point connectivity.
Setting element connectivity.
Checking the numerical grid orientation.
Identifying edges and vertices.
Computing centers of gravity.
Setting the control volume structure.
Volume of the computational grid: 5.51678e+06.
Searching for the closest normal neighbors to the surfaces.
Storing a mapping from global to local point index.
Compute the surface curvature.
Max K: 875.44. Mean K: 40.1307. Standard deviation K: 78.9735.
Checking for periodicity.
Computing mesh quality statistics for the dual control volumes.
+--------------------------------------------------------------+
|           Mesh Quality Metric|        Minimum|        Maximum|
+--------------------------------------------------------------+
|    Orthogonality Angle (deg.)|        34.7239|        84.8491|
|     CV Face Area Aspect Ratio|        1.22761|        323.151|
|           CV Sub-Volume Ratio|        1.03106|        2750.97|
+--------------------------------------------------------------+
Setting the multigrid structure.
+-------------------------------------------+
|  MG Level|       CVs|Aggl. Rate|       CFL|
+-------------------------------------------+
|         0|    142496|    1/1.00|         1|
|         1|     25276|    1/5.64|  0.842804|
|         2|      5944|    1/4.25|  0.780323|
Finding max control volume width.
Communicating number of neighbors.
Semi-span length = 16.372 m.
Wetted area = 187.08 m^2.
Area projection in the x-plane = 12.2414 m^2, y-plane = 26.6818 m^2, z-plane = 75.3672 m^2.
Max. coordinate in the x-direction = 16.6929 m, y-direction = 16.372 m, z-direction = 5.38072 m.
Min. coordinate in the x-direction = 2.50403 m, y-direction = -16.3721 m, z-direction = 1.0695 m.
Checking if Euler & Symmetry markers are straight/plane:
Boundary marker VTP is NOT a single plane.
Boundary marker Fuselage is NOT a single plane.
Boundary marker HTP is NOT a single plane.
Boundary marker Wing is NOT a single plane.
Boundary marker 0 is a single plane.

-------------------- Solver Preprocessing ( Zone 0 ) --------------------
Inviscid flow: Computing density based on free-stream
temperature and pressure using the ideal gas law.
Force coefficients computed using free-stream values.

-- Models:
+------------------------------------------------------------------------------+
|          Viscosity Model|        Conductivity Model|              Fluid Model|
+------------------------------------------------------------------------------+
|                        -|                         -|             STANDARD_AIR|
+------------------------------------------------------------------------------+
-- Fluid properties:
+------------------------------------------------------------------------------+
|                  Name|    Dim. value|    Ref. value|      Unit|Non-dim. value|
+------------------------------------------------------------------------------+
|          Gas Constant|       287.058|             1|  N.m/kg.K|       287.058|
|      Spec. Heat Ratio|             -|             -|         -|           1.4|
+------------------------------------------------------------------------------+
-- Initial and free-stream conditions:
+------------------------------------------------------------------------------+
|                  Name|    Dim. value|    Ref. value|      Unit|Non-dim. value|
+------------------------------------------------------------------------------+
|       Static Pressure|        101325|             1|        Pa|        101325|
|               Density|       1.22498|             1|    kg/m^3|       1.22498|
|           Temperature|        288.15|             1|         K|        288.15|
|          Total Energy|        214716|             1|   m^2/s^2|        214716|
|            Velocity-X|       125.125|             1|       m/s|       125.125|
|            Velocity-Y|             0|             1|       m/s|             0|
|            Velocity-Z|       -14.035|             1|       m/s|       -14.035|
|    Velocity Magnitude|        125.91|             1|       m/s|        125.91|
+------------------------------------------------------------------------------+
|           Mach Number|             -|             -|         -|          0.37|
+------------------------------------------------------------------------------+
Initialize Jacobian structure (Euler). MG level: 0.
Initialize Jacobian structure (Euler). MG level: 1.
Initialize Jacobian structure (Euler). MG level: 2.

------------------- Numerics Preprocessing ( Zone 0 ) -------------------

----------------- Integration Preprocessing ( Zone 0 ) ------------------

------------------- Iteration Preprocessing ( Zone 0 ) ------------------
Euler/Navier-Stokes/RANS fluid iteration.

------------------------------ Begin Solver -----------------------------

Simulation Run using the Single-zone Driver
+-------------------------------------------------------------------------------------------------------+
|  Inner_Iter|   Time_Iter|    rms[Rho]|   rms[RhoU]|   rms[RhoV]|   rms[RhoE]|          CL|          CD|
+-------------------------------------------------------------------------------------------------------+
|           0|           0|   -0.963046|    1.168710|    1.163087|    4.510342|   -0.565671|    0.311493|
|           1|           0|   -1.073754|    1.107153|    1.080971|    4.402548|   -0.979755|    0.534657|
|           2|           0|   -1.109019|    1.155000|    1.091044|    4.368755|   -1.261277|    0.681801|
|           3|           0|   -1.093361|    1.229116|    1.142566|    4.384376|   -1.431422|    0.765663|
|           4|           0|   -1.062102|    1.301703|    1.198603|    4.415369|   -1.510417|    0.798272|
|           5|           0|   -1.030500|    1.369375|    1.249067|    4.446941|   -1.517302|    0.791030|
|           6|           0|   -1.001385|    1.433018|    1.293894|    4.476184|   -1.469591|    0.754411|
|           7|           0|   -0.973755|    1.493206|    1.335137|    4.503986|   -1.382594|    0.697506|
|           8|           0|   -0.946940|    1.549884|    1.374963|    4.530943|   -1.269579|    0.628059|
|           9|           0|   -0.920913|    1.603041|    1.415005|    4.557033|   -1.141724|    0.552420|
|          10|           0|   -0.896276|    1.652608|    1.456277|    4.581597|   -1.008037|    0.475600|
+-----------------------------------------------------------------------+
|        File Writing Summary       |              Filename             |
+-----------------------------------------------------------------------+
|SU2 restart                        |solution_flow.dat                  |
|Paraview                           |flow.vtu                           |
|Paraview surface                   |surface_flow.vtu                   |
+-----------------------------------------------------------------------+

Writing the forces breakdown file (forces_breakdown.dat).
+-------------------------------------------------------------------------------------------------------+
|  Inner_Iter|   Time_Iter|    rms[Rho]|   rms[RhoU]|   rms[RhoV]|   rms[RhoE]|          CL|          CD|
+-------------------------------------------------------------------------------------------------------+
|          11|           0|   -0.873933|    1.698430|    1.498991|    4.603654|   -0.875358|    0.401330|
|          12|           0|   -0.854669|    1.740239|    1.542512|    4.622305|   -0.748541|    0.332059|
|          13|           0|   -0.839120|    1.777721|    1.585754|    4.636772|   -0.630772|    0.269242|
|          14|           0|   -0.827469|    1.810540|    1.627412|    4.646679|   -0.523910|    0.213568|
|          15|           0|   -0.819483|    1.838260|    1.666175|    4.652025|   -0.428778|    0.165142|
|          16|           0|   -0.814312|    1.860413|    1.700909|    4.653452|   -0.345414|    0.123648|
|          17|           0|   -0.810660|    1.876702|    1.730652|    4.652161|   -0.273320|    0.088503|
|          18|           0|   -0.806527|    1.886825|    1.754750|    4.650373|   -0.211703|    0.059009|
|          19|           0|   -0.799558|    1.890733|    1.772683|    4.651239|   -0.159642|    0.034441|
|          20|           0|   -0.787455|    1.888630|    1.784115|    4.658426|   -0.116207|    0.014097|
+-----------------------------------------------------------------------+
|        File Writing Summary       |              Filename             |
+-----------------------------------------------------------------------+
|SU2 restart                        |solution_flow.dat                  |
|Paraview                           |flow.vtu                           |
|Paraview surface                   |surface_flow.vtu                   |
+-----------------------------------------------------------------------+

Writing the forces breakdown file (forces_breakdown.dat).
+-------------------------------------------------------------------------------------------------------+
|  Inner_Iter|   Time_Iter|    rms[Rho]|   rms[RhoU]|   rms[RhoV]|   rms[RhoE]|          CL|          CD|
+-------------------------------------------------------------------------------------------------------+
|          21|           0|   -0.769198|    1.880968|    1.789143|    4.674226|   -0.080523|   -0.002670|
|          22|           0|   -0.745430|    1.868589|    1.788219|    4.698681|   -0.051750|   -0.016423|
|          23|           0|   -0.718071|    1.853321|    1.782474|    4.729516|   -0.029159|   -0.027629|
|          24|           0|   -0.690112|    1.837924|    1.773222|    4.762632|   -0.012125|   -0.036668|
|          25|           0|   -0.664517|    1.825769|    1.762840|    4.794061|   -0.000155|   -0.043827|
|          26|           0|   -0.643407|    1.819482|    1.754646|    4.820916|    0.007163|   -0.049313|
|          27|           0|   -0.628474|    1.820486|    1.752230|    4.841014|    0.010153|   -0.053270|
|          28|           0|   -0.620665|    1.828113|    1.757585|    4.853113|    0.009130|   -0.055796|
|          29|           0|   -0.620154|    1.839383|    1.769877|    4.856635|    0.004357|   -0.056965|
|          30|           0|   -0.626336|    1.850803|    1.786035|    4.851850|   -0.003917|   -0.056826|
+-----------------------------------------------------------------------+
|        File Writing Summary       |              Filename             |
+-----------------------------------------------------------------------+
|SU2 restart                        |solution_flow.dat                  |
|Paraview                           |flow.vtu                           |
|Paraview surface                   |surface_flow.vtu                   |
+-----------------------------------------------------------------------+

Writing the forces breakdown file (forces_breakdown.dat).
+-------------------------------------------------------------------------------------------------------+
|  Inner_Iter|   Time_Iter|    rms[Rho]|   rms[RhoU]|   rms[RhoV]|   rms[RhoE]|          CL|          CD|
+-------------------------------------------------------------------------------------------------------+
|          31|           0|   -0.637432|    1.858820|    1.802168|    4.840135|   -0.015447|   -0.055424|
|          32|           0|   -0.649523|    1.861736|    1.814791|    4.824993|   -0.029994|   -0.052800|
|          33|           0|   -0.657314|    1.858973|    1.820995|    4.811787|   -0.047281|   -0.049011|
|          34|           0|   -0.654592|    1.852680|    1.819343|    4.808005|   -0.067008|   -0.044118|
|          35|           0|   -0.638300|    1.844227|    1.808535|    4.819027|   -0.088873|   -0.038199|
|          36|           0|   -0.609604|    1.837956|    1.788058|    4.845674|   -0.112556|   -0.031344|
|          37|           0|   -0.574037|    1.838441|    1.760751|    4.882418|   -0.137729|   -0.023657|
|          38|           0|   -0.538386|    1.851600|    1.733054|    4.921251|   -0.164044|   -0.015257|
|          39|           0|   -0.507599|    1.875431|    1.715417|    4.955857|   -0.191162|   -0.006267|
|          40|           0|   -0.483860|    1.908621|    1.721533|    4.983441|   -0.218737|    0.003174|
+-----------------------------------------------------------------------+
|        File Writing Summary       |              Filename             |
+-----------------------------------------------------------------------+
|SU2 restart                        |solution_flow.dat                  |
|Paraview                           |flow.vtu                           |
|Paraview surface                   |surface_flow.vtu                   |
+-----------------------------------------------------------------------+

Writing the forces breakdown file (forces_breakdown.dat).
+-------------------------------------------------------------------------------------------------------+
|  Inner_Iter|   Time_Iter|    rms[Rho]|   rms[RhoU]|   rms[RhoV]|   rms[RhoE]|          CL|          CD|
+-------------------------------------------------------------------------------------------------------+
|          41|           0|   -0.468153|    1.945062|    1.753784|    5.002607|   -0.246447|    0.012927|
|          42|           0|   -0.460825|    1.980281|    1.805869|    5.012570|   -0.273978|    0.022848|
|          43|           0|   -0.461810|    2.010718|    1.863745|    5.013199|   -0.301025|    0.032793|
|          44|           0|   -0.471109|    2.034326|    1.918608|    5.004096|   -0.327299|    0.042621|
|          45|           0|   -0.487415|    2.050316|    1.966358|    4.986072|   -0.352529|    0.052194|
|          46|           0|   -0.508692|    2.058553|    2.004754|    4.960362|   -0.376468|    0.061380|
|          47|           0|   -0.531031|    2.058745|    2.033198|    4.930284|   -0.398892|    0.070056|
|          48|           0|   -0.548478|    2.050779|    2.051922|    4.901788|   -0.419619|    0.078116|
|          49|           0|   -0.557289|    2.034930|    2.061302|    4.880239|   -0.438507|    0.085468|
|          50|           0|   -0.554334|    2.011574|    2.061889|    4.872067|   -0.455418|    0.092034|
+-----------------------------------------------------------------------+
|        File Writing Summary       |              Filename             |
+-----------------------------------------------------------------------+
|SU2 restart                        |solution_flow.dat                  |
|Paraview                           |flow.vtu                           |
|Paraview surface                   |surface_flow.vtu                   |
+-----------------------------------------------------------------------+

Writing the forces breakdown file (forces_breakdown.dat).
+-------------------------------------------------------------------------------------------------------+
|  Inner_Iter|   Time_Iter|    rms[Rho]|   rms[RhoU]|   rms[RhoV]|   rms[RhoE]|          CL|          CD|
+-------------------------------------------------------------------------------------------------------+
|          51|           0|   -0.539193|    1.980962|    2.054086|    4.881262|   -0.470230|    0.097751|
|          52|           0|   -0.515941|    1.944860|    2.038981|    4.904461|   -0.482859|    0.102572|
|          53|           0|   -0.489798|    1.906183|    2.016973|    4.934664|   -0.493264|    0.106470|
|          54|           0|   -0.465216|    1.868098|    1.989710|    4.965213|   -0.501416|    0.109431|
|          55|           0|   -0.444786|    1.835955|    1.959698|    4.991988|   -0.507326|    0.111457|
|          56|           0|   -0.429811|    1.817053|    1.929409|    5.013026|   -0.511008|    0.112563|
|          57|           0|   -0.420504|    1.813226|    1.903065|    5.027746|   -0.512528|    0.112784|
|          58|           0|   -0.416480|    1.823604|    1.884643|    5.036508|   -0.511961|    0.112164|
|          59|           0|   -0.417551|    1.842881|    1.877243|    5.039392|   -0.509411|    0.110758|
|          60|           0|   -0.423382|    1.865850|    1.881334|    5.036531|   -0.504984|    0.108634|
+-----------------------------------------------------------------------+
|        File Writing Summary       |              Filename             |
+-----------------------------------------------------------------------+
|SU2 restart                        |solution_flow.dat                  |
|Paraview                           |flow.vtu                           |
|Paraview surface                   |surface_flow.vtu                   |
+-----------------------------------------------------------------------+

Writing the forces breakdown file (forces_breakdown.dat).
+-------------------------------------------------------------------------------------------------------+
|  Inner_Iter|   Time_Iter|    rms[Rho]|   rms[RhoU]|   rms[RhoV]|   rms[RhoE]|          CL|          CD|
+-------------------------------------------------------------------------------------------------------+
|          61|           0|   -0.433006|    1.888617|    1.894510|    5.028839|   -0.498839|    0.105867|
|          62|           0|   -0.445778|    1.909186|    1.912830|    5.016723|   -0.491146|    0.102542|
|          63|           0|   -0.460118|    1.926596|    1.933148|    5.001366|   -0.482083|    0.098745|
|          64|           0|   -0.474768|    1.940934|    1.952223|    4.984020|   -0.471845|    0.094569|
|          65|           0|   -0.488651|    1.951982|    1.968745|    4.965584|   -0.460630|    0.090103|
|          66|           0|   -0.499755|    1.959040|    1.981158|    4.948339|   -0.448651|    0.085440|
|          67|           0|   -0.507696|    1.963485|    1.989512|    4.932956|   -0.436130|    0.080667|
|          68|           0|   -0.511637|    1.963199|    1.993233|    4.921024|   -0.423287|    0.075872|
|          69|           0|   -0.511567|    1.961055|    1.993032|    4.913445|   -0.410348|    0.071135|
|          70|           0|   -0.508124|    1.956032|    1.988534|    4.910350|   -0.397536|    0.066530|
+-----------------------------------------------------------------------+
|        File Writing Summary       |              Filename             |
+-----------------------------------------------------------------------+
|SU2 restart                        |solution_flow.dat                  |
|Paraview                           |flow.vtu                           |
|Paraview surface                   |surface_flow.vtu                   |
+-----------------------------------------------------------------------+

Writing the forces breakdown file (forces_breakdown.dat).
+-------------------------------------------------------------------------------------------------------+
|  Inner_Iter|   Time_Iter|    rms[Rho]|   rms[RhoU]|   rms[RhoV]|   rms[RhoE]|          CL|          CD|
+-------------------------------------------------------------------------------------------------------+
|          71|           0|   -0.503548|    1.949778|    1.980636|    4.909890|   -0.385066|    0.062125|
|          72|           0|   -0.498473|    1.940335|    1.969408|    4.911568|   -0.373144|    0.057980|
|          73|           0|   -0.493692|    1.929672|    1.955849|    4.914662|   -0.361957|    0.054146|
|          74|           0|   -0.489250|    1.916802|    1.940379|    4.918996|   -0.351671|    0.050667|
|          75|           0|   -0.486325|    1.904095|    1.924000|    4.923013|   -0.342434|    0.047577|
|          76|           0|   -0.485247|    1.890421|    1.906331|    4.926113|   -0.334372|    0.044901|
|          77|           0|   -0.486590|    1.877850|    1.888567|    4.927416|   -0.327591|    0.042654|
|          78|           0|   -0.490363|    1.865890|    1.872074|    4.926750|   -0.322171|    0.040845|
|          79|           0|   -0.495677|    1.854377|    1.857554|    4.924858|   -0.318164|    0.039472|
|          80|           0|   -0.502862|    1.844776|    1.845522|    4.921215|   -0.315602|    0.038531|
+-----------------------------------------------------------------------+
|        File Writing Summary       |              Filename             |
+-----------------------------------------------------------------------+
|SU2 restart                        |solution_flow.dat                  |
|Paraview                           |flow.vtu                           |
|Paraview surface                   |surface_flow.vtu                   |
+-----------------------------------------------------------------------+

Writing the forces breakdown file (forces_breakdown.dat).
+-------------------------------------------------------------------------------------------------------+
|  Inner_Iter|   Time_Iter|    rms[Rho]|   rms[RhoU]|   rms[RhoV]|   rms[RhoE]|          CL|          CD|
+-------------------------------------------------------------------------------------------------------+
|          81|           0|   -0.512124|    1.835962|    1.835509|    4.915570|   -0.314483|    0.038005|
|          82|           0|   -0.522917|    1.828937|    1.828207|    4.908439|   -0.314793|    0.037878|
|          83|           0|   -0.535454|    1.824596|    1.824152|    4.899341|   -0.316480|    0.038123|
|          84|           0|   -0.549046|    1.821657|    1.822192|    4.888860|   -0.319464|    0.038710|
|          85|           0|   -0.564001|    1.819674|    1.822115|    4.876356|   -0.323647|    0.039605|
|          86|           0|   -0.579320|    1.818487|    1.822952|    4.862757|   -0.328910|    0.040771|
|          87|           0|   -0.594068|    1.818197|    1.823993|    4.849033|   -0.335114|    0.042167|
|          88|           0|   -0.608956|    1.818016|    1.825004|    4.833646|   -0.342119|    0.043755|
|          89|           0|   -0.622093|    1.817243|    1.824930|    4.819271|   -0.349762|    0.045491|
|          90|           0|   -0.633280|    1.816477|    1.823394|    4.806028|   -0.357885|    0.047337|
+-----------------------------------------------------------------------+
|        File Writing Summary       |              Filename             |
+-----------------------------------------------------------------------+
|SU2 restart                        |solution_flow.dat                  |
|Paraview                           |flow.vtu                           |
|Paraview surface                   |surface_flow.vtu                   |
+-----------------------------------------------------------------------+

Writing the forces breakdown file (forces_breakdown.dat).
+-------------------------------------------------------------------------------------------------------+
|  Inner_Iter|   Time_Iter|    rms[Rho]|   rms[RhoU]|   rms[RhoV]|   rms[RhoE]|          CL|          CD|
+-------------------------------------------------------------------------------------------------------+
|          91|           0|   -0.642275|    1.815933|    1.820146|    4.794002|   -0.366316|    0.049250|
|          92|           0|   -0.649147|    1.814567|    1.815055|    4.783380|   -0.374890|    0.051196|
|          93|           0|   -0.653788|    1.812387|    1.808014|    4.774806|   -0.383444|    0.053136|
|          94|           0|   -0.656066|    1.809219|    1.799127|    4.768742|   -0.391831|    0.055040|
|          95|           0|   -0.657284|    1.805232|    1.788774|    4.763916|   -0.399906|    0.056876|
|          96|           0|   -0.658298|    1.801244|    1.777306|    4.759584|   -0.407540|    0.058619|
|          97|           0|   -0.659589|    1.797449|    1.765053|    4.755474|   -0.414613|    0.060245|
|          98|           0|   -0.661552|    1.793431|    1.752530|    4.751177|   -0.421025|    0.061737|
|          99|           0|   -0.664004|    1.788905|    1.740340|    4.747061|   -0.426691|    0.063076|
|         100|           0|   -0.667201|    1.784100|    1.729366|    4.742821|   -0.431551|    0.064254|
+-----------------------------------------------------------------------+
|        File Writing Summary       |              Filename             |
+-----------------------------------------------------------------------+
|SU2 restart                        |solution_flow.dat                  |
|Paraview                           |flow.vtu                           |
|Paraview surface                   |surface_flow.vtu                   |
+-----------------------------------------------------------------------+

Writing the forces breakdown file (forces_breakdown.dat).
+-------------------------------------------------------------------------------------------------------+
|  Inner_Iter|   Time_Iter|    rms[Rho]|   rms[RhoU]|   rms[RhoV]|   rms[RhoE]|          CL|          CD|
+-------------------------------------------------------------------------------------------------------+
|         101|           0|   -0.671875|    1.779322|    1.719151|    4.737477|   -0.435555|    0.065260|
|         102|           0|   -0.678513|    1.773971|    1.709818|    4.730465|   -0.438682|    0.066091|
|         103|           0|   -0.687114|    1.768039|    1.701450|    4.721876|   -0.440921|    0.066743|
|         104|           0|   -0.698083|    1.762289|    1.694573|    4.711051|   -0.442287|    0.067219|
|         105|           0|   -0.710839|    1.755972|    1.688514|    4.698961|   -0.442809|    0.067523|
|         106|           0|   -0.725874|    1.749389|    1.683268|    4.685028|   -0.442530|    0.067663|
|         107|           0|   -0.742964|    1.742368|    1.678086|    4.669460|   -0.441504|    0.067646|
|         108|           0|   -0.761234|    1.734289|    1.672516|    4.653468|   -0.439810|    0.067485|
|         109|           0|   -0.779992|    1.724688|    1.665912|    4.637762|   -0.437525|    0.067190|
|         110|           0|   -0.798815|    1.713877|    1.658343|    4.622548|   -0.434723|    0.066773|
+-----------------------------------------------------------------------+
|        File Writing Summary       |              Filename             |
+-----------------------------------------------------------------------+
|SU2 restart                        |solution_flow.dat                  |
|Paraview                           |flow.vtu                           |
|Paraview surface                   |surface_flow.vtu                   |
+-----------------------------------------------------------------------+

Writing the forces breakdown file (forces_breakdown.dat).
+-------------------------------------------------------------------------------------------------------+
|  Inner_Iter|   Time_Iter|    rms[Rho]|   rms[RhoU]|   rms[RhoV]|   rms[RhoE]|          CL|          CD|
+-------------------------------------------------------------------------------------------------------+
|         111|           0|   -0.817516|    1.701943|    1.649716|    4.607881|   -0.431499|    0.066248|
|         112|           0|   -0.835228|    1.688329|    1.639804|    4.594421|   -0.427941|    0.065630|
|         113|           0|   -0.851568|    1.672851|    1.628248|    4.582284|   -0.424141|    0.064930|
|         114|           0|   -0.866103|    1.655786|    1.615503|    4.571539|   -0.420188|    0.064165|
|         115|           0|   -0.878767|    1.637868|    1.601797|    4.562018|   -0.416166|    0.063345|
|         116|           0|   -0.889920|    1.620133|    1.587606|    4.553196|   -0.412166|    0.062488|
|         117|           0|   -0.899707|    1.602279|    1.573206|    4.544721|   -0.408258|    0.061603|
|         118|           0|   -0.908525|    1.585439|    1.559084|    4.536189|   -0.404513|    0.060704|
|         119|           0|   -0.916466|    1.570353|    1.545977|    4.527611|   -0.400995|    0.059801|
|         120|           0|   -0.923796|    1.557284|    1.534365|    4.518594|   -0.397752|    0.058903|
+-----------------------------------------------------------------------+
|        File Writing Summary       |              Filename             |
+-----------------------------------------------------------------------+
|SU2 restart                        |solution_flow.dat                  |
|Paraview                           |flow.vtu                           |
|Paraview surface                   |surface_flow.vtu                   |
+-----------------------------------------------------------------------+

Writing the forces breakdown file (forces_breakdown.dat).
+-------------------------------------------------------------------------------------------------------+
|  Inner_Iter|   Time_Iter|    rms[Rho]|   rms[RhoU]|   rms[RhoV]|   rms[RhoE]|          CL|          CD|
+-------------------------------------------------------------------------------------------------------+
|         121|           0|   -0.930476|    1.546734|    1.524715|    4.509335|   -0.394837|    0.058022|
|         122|           0|   -0.937596|    1.539740|    1.517548|    4.498840|   -0.392275|    0.057166|
|         123|           0|   -0.945082|    1.536122|    1.512707|    4.487330|   -0.390099|    0.056342|
|         124|           0|   -0.952980|    1.535429|    1.510087|    4.474834|   -0.388318|    0.055557|
|         125|           0|   -0.961502|    1.536724|    1.509260|    4.461256|   -0.386945|    0.054817|
|         126|           0|   -0.970716|    1.539154|    1.510165|    4.446678|   -0.385969|    0.054128|
|         127|           0|   -0.980226|    1.542074|    1.512184|    4.431845|   -0.385393|    0.053496|
|         128|           0|   -0.989887|    1.544603|    1.514438|    4.417115|   -0.385191|    0.052924|
|         129|           0|   -1.000277|    1.546043|    1.516389|    4.401820|   -0.385352|    0.052417|
|         130|           0|   -1.011678|    1.546757|    1.517605|    4.385907|   -0.385842|    0.051975|
+-----------------------------------------------------------------------+
|        File Writing Summary       |              Filename             |
+-----------------------------------------------------------------------+
|SU2 restart                        |solution_flow.dat                  |
|Paraview                           |flow.vtu                           |
|Paraview surface                   |surface_flow.vtu                   |
+-----------------------------------------------------------------------+

Writing the forces breakdown file (forces_breakdown.dat).
+-------------------------------------------------------------------------------------------------------+
|  Inner_Iter|   Time_Iter|    rms[Rho]|   rms[RhoU]|   rms[RhoV]|   rms[RhoE]|          CL|          CD|
+-------------------------------------------------------------------------------------------------------+
|         131|           0|   -1.024709|    1.546401|    1.517499|    4.368905|   -0.386639|    0.051603|
|         132|           0|   -1.039041|    1.544836|    1.515922|    4.351461|   -0.387703|    0.051303|
|         133|           0|   -1.053608|    1.541705|    1.512758|    4.335163|   -0.389007|    0.051076|
|         134|           0|   -1.068403|    1.536465|    1.507208|    4.320194|   -0.390508|    0.050923|
|         135|           0|   -1.083417|    1.529064|    1.499297|    4.306747|   -0.392180|    0.050847|
|         136|           0|   -1.098018|    1.518979|    1.488876|    4.295649|   -0.393978|    0.050846|
|         137|           0|   -1.111850|    1.505972|    1.475795|    4.287185|   -0.395877|    0.050921|
|         138|           0|   -1.124644|    1.489843|    1.460185|    4.281213|   -0.397834|    0.051071|
|         139|           0|   -1.136005|    1.470870|    1.442265|    4.277975|   -0.399827|    0.051294|
|         140|           0|   -1.146311|    1.448775|    1.422380|    4.276154|   -0.401813|    0.051587|
+-----------------------------------------------------------------------+
|        File Writing Summary       |              Filename             |
+-----------------------------------------------------------------------+
|SU2 restart                        |solution_flow.dat                  |
|Paraview                           |flow.vtu                           |
|Paraview surface                   |surface_flow.vtu                   |
+-----------------------------------------------------------------------+

Writing the forces breakdown file (forces_breakdown.dat).
+-------------------------------------------------------------------------------------------------------+
|  Inner_Iter|   Time_Iter|    rms[Rho]|   rms[RhoU]|   rms[RhoV]|   rms[RhoE]|          CL|          CD|
+-------------------------------------------------------------------------------------------------------+
|         141|           0|   -1.155666|    1.424067|    1.400983|    4.275413|   -0.403776|    0.051949|
|         142|           0|   -1.164357|    1.396952|    1.378594|    4.274846|   -0.405684|    0.052375|
|         143|           0|   -1.172190|    1.367881|    1.355955|    4.274563|   -0.407525|    0.052864|
|         144|           0|   -1.179620|    1.337752|    1.334176|    4.273604|   -0.409267|    0.053407|
|         145|           0|   -1.186750|    1.307806|    1.314600|    4.271721|   -0.410904|    0.054001|
|         146|           0|   -1.193754|    1.279394|    1.298443|    4.268642|   -0.412417|    0.054639|
|         147|           0|   -1.201462|    1.254600|    1.286712|    4.263453|   -0.413802|    0.055314|
|         148|           0|   -1.209786|    1.235520|    1.279989|    4.256363|   -0.415042|    0.056018|
|         149|           0|   -1.218802|    1.223461|    1.278333|    4.247274|   -0.416143|    0.056746|
|         150|           0|   -1.228422|    1.218867|    1.281078|    4.236202|   -0.417097|    0.057487|
+-----------------------------------------------------------------------+
|        File Writing Summary       |              Filename             |
+-----------------------------------------------------------------------+
|SU2 restart                        |solution_flow.dat                  |
|Paraview                           |flow.vtu                           |
|Paraview surface                   |surface_flow.vtu                   |
+-----------------------------------------------------------------------+

Writing the forces breakdown file (forces_breakdown.dat).
+-------------------------------------------------------------------------------------------------------+
|  Inner_Iter|   Time_Iter|    rms[Rho]|   rms[RhoU]|   rms[RhoV]|   rms[RhoE]|          CL|          CD|
+-------------------------------------------------------------------------------------------------------+
|         151|           0|   -1.238637|    1.221326|    1.287222|    4.223131|   -0.417910|    0.058234|
|         152|           0|   -1.249128|    1.229469|    1.295658|    4.208465|   -0.418578|    0.058979|
|         153|           0|   -1.259858|    1.241824|    1.304974|    4.192267|   -0.419107|    0.059711|
|         154|           0|   -1.270414|    1.255639|    1.314070|    4.174829|   -0.419505|    0.060422|
|         155|           0|   -1.280726|    1.269626|    1.322291|    4.156440|   -0.419778|    0.061104|
|         156|           0|   -1.290433|    1.282964|    1.329023|    4.137749|   -0.419927|    0.061746|
|         157|           0|   -1.298982|    1.294875|    1.333724|    4.119754|   -0.419965|    0.062342|
|         158|           0|   -1.306229|    1.304561|    1.335996|    4.103176|   -0.419897|    0.062885|
|         159|           0|   -1.312024|    1.311538|    1.335784|    4.088782|   -0.419738|    0.063365|
|         160|           0|   -1.316334|    1.315451|    1.332689|    4.077178|   -0.419490|    0.063779|
+-----------------------------------------------------------------------+
|        File Writing Summary       |              Filename             |
+-----------------------------------------------------------------------+
|SU2 restart                        |solution_flow.dat                  |
|Paraview                           |flow.vtu                           |
|Paraview surface                   |surface_flow.vtu                   |
+-----------------------------------------------------------------------+

Writing the forces breakdown file (forces_breakdown.dat).
+-------------------------------------------------------------------------------------------------------+
|  Inner_Iter|   Time_Iter|    rms[Rho]|   rms[RhoU]|   rms[RhoV]|   rms[RhoE]|          CL|          CD|
+-------------------------------------------------------------------------------------------------------+
|         161|           0|   -1.319172|    1.316228|    1.326577|    4.069014|   -0.419165|    0.064118|
|         162|           0|   -1.321124|    1.313908|    1.317485|    4.063981|   -0.418770|    0.064380|
|         163|           0|   -1.322659|    1.308547|    1.305387|    4.061629|   -0.418320|    0.064560|
|         164|           0|   -1.323771|    1.300028|    1.290492|    4.061882|   -0.417820|    0.064657|
|         165|           0|   -1.324983|    1.288818|    1.272741|    4.063796|   -0.417282|    0.064668|
|         166|           0|   -1.326669|    1.274873|    1.252024|    4.066655|   -0.416710|    0.064592|
|         167|           0|   -1.328944|    1.258110|    1.228970|    4.069983|   -0.416118|    0.064433|
|         168|           0|   -1.332257|    1.238562|    1.203863|    4.072888|   -0.415508|    0.064191|
|         169|           0|   -1.336873|    1.216541|    1.177326|    4.074818|   -0.414892|    0.063868|
|         170|           0|   -1.342917|    1.192076|    1.150274|    4.075386|   -0.414273|    0.063471|
+-----------------------------------------------------------------------+
|        File Writing Summary       |              Filename             |
+-----------------------------------------------------------------------+
|SU2 restart                        |solution_flow.dat                  |
|Paraview                           |flow.vtu                           |
|Paraview surface                   |surface_flow.vtu                   |
+-----------------------------------------------------------------------+

Writing the forces breakdown file (forces_breakdown.dat).
+-------------------------------------------------------------------------------------------------------+
|  Inner_Iter|   Time_Iter|    rms[Rho]|   rms[RhoU]|   rms[RhoV]|   rms[RhoE]|          CL|          CD|
+-------------------------------------------------------------------------------------------------------+
|         171|           0|   -1.350239|    1.165150|    1.123732|    4.074611|   -0.413663|    0.063003|
|         172|           0|   -1.358763|    1.136613|    1.098836|    4.072485|   -0.413062|    0.062471|
|         173|           0|   -1.368579|    1.107242|    1.077023|    4.068696|   -0.412484|    0.061883|
|         174|           0|   -1.379724|    1.077821|    1.059503|    4.063001|   -0.411927|    0.061246|
|         175|           0|   -1.392125|    1.049404|    1.047223|    4.055324|   -0.411405|    0.060568|
|         176|           0|   -1.405565|    1.023534|    1.040461|    4.045736|   -0.410916|    0.059859|
|         177|           0|   -1.419901|    1.001871|    1.038801|    4.034300|   -0.410472|    0.059129|
|         178|           0|   -1.435342|    0.985713|    1.041307|    4.020567|   -0.410067|    0.058387|
|         179|           0|   -1.451452|    0.975568|    1.046645|    4.004919|   -0.409716|    0.057643|
|         180|           0|   -1.467929|    0.971394|    1.053550|    3.987513|   -0.409414|    0.056907|
+-----------------------------------------------------------------------+
|        File Writing Summary       |              Filename             |
+-----------------------------------------------------------------------+
|SU2 restart                        |solution_flow.dat                  |
|Paraview                           |flow.vtu                           |
|Paraview surface                   |surface_flow.vtu                   |
+-----------------------------------------------------------------------+

Writing the forces breakdown file (forces_breakdown.dat).
+-------------------------------------------------------------------------------------------------------+
|  Inner_Iter|   Time_Iter|    rms[Rho]|   rms[RhoU]|   rms[RhoV]|   rms[RhoE]|          CL|          CD|
+-------------------------------------------------------------------------------------------------------+
|         181|           0|   -1.484051|    0.972280|    1.060521|    3.968921|   -0.409171|    0.056188|
|         182|           0|   -1.499185|    0.977090|    1.066397|    3.949857|   -0.408979|    0.055496|
|         183|           0|   -1.513164|    0.984117|    1.070603|    3.930539|   -0.408850|    0.054840|
|         184|           0|   -1.525834|    0.992043|    1.072666|    3.911249|   -0.408773|    0.054228|
|         185|           0|   -1.536851|    0.999727|    1.072301|    3.892692|   -0.408756|    0.053667|
|         186|           0|   -1.546096|    1.006132|    1.069185|    3.875392|   -0.408791|    0.053164|
|         187|           0|   -1.554064|    1.011115|    1.063312|    3.859377|   -0.408883|    0.052724|
|         188|           0|   -1.560785|    1.014248|    1.054630|    3.845146|   -0.409024|    0.052353|
|         189|           0|   -1.566764|    1.015320|    1.043018|    3.832618|   -0.409221|    0.052056|
|         190|           0|   -1.572399|    1.014089|    1.028516|    3.821758|   -0.409458|    0.051833|
+-----------------------------------------------------------------------+
|        File Writing Summary       |              Filename             |
+-----------------------------------------------------------------------+
|SU2 restart                        |solution_flow.dat                  |
|Paraview                           |flow.vtu                           |
|Paraview surface                   |surface_flow.vtu                   |
+-----------------------------------------------------------------------+

Writing the forces breakdown file (forces_breakdown.dat).
+-------------------------------------------------------------------------------------------------------+
|  Inner_Iter|   Time_Iter|    rms[Rho]|   rms[RhoU]|   rms[RhoV]|   rms[RhoE]|          CL|          CD|
+-------------------------------------------------------------------------------------------------------+
|         191|           0|   -1.577786|    1.010636|    1.011178|    3.812775|   -0.409742|    0.051688|
|         192|           0|   -1.583178|    1.004760|    0.991013|    3.805558|   -0.410062|    0.051620|
|         193|           0|   -1.589096|    0.996442|    0.968284|    3.799461|   -0.410422|    0.051630|
|         194|           0|   -1.595742|    0.985392|    0.943358|    3.794062|   -0.410810|    0.051716|
|         195|           0|   -1.603477|    0.971921|    0.916596|    3.788762|   -0.411230|    0.051875|
|         196|           0|   -1.612638|    0.956206|    0.888475|    3.782954|   -0.411670|    0.052105|
|         197|           0|   -1.623144|    0.938347|    0.859717|    3.776490|   -0.412134|    0.052401|
|         198|           0|   -1.635147|    0.918281|    0.831135|    3.768979|   -0.412607|    0.052757|
|         199|           0|   -1.648849|    0.896351|    0.803766|    3.760044|   -0.413093|    0.053169|
|         200|           0|   -1.664377|    0.873046|    0.778779|    3.749391|   -0.413581|    0.053628|
+-----------------------------------------------------------------------+
|        File Writing Summary       |              Filename             |
+-----------------------------------------------------------------------+
|SU2 restart                        |solution_flow.dat                  |
|Paraview                           |flow.vtu                           |
|Paraview surface                   |surface_flow.vtu                   |
+-----------------------------------------------------------------------+

Writing the forces breakdown file (forces_breakdown.dat).
+-------------------------------------------------------------------------------------------------------+
|  Inner_Iter|   Time_Iter|    rms[Rho]|   rms[RhoU]|   rms[RhoV]|   rms[RhoE]|          CL|          CD|
+-------------------------------------------------------------------------------------------------------+
|         201|           0|   -1.681900|    0.848801|    0.757251|    3.736588|   -0.414074|    0.054130|
|         202|           0|   -1.700929|    0.824066|    0.739847|    3.722226|   -0.414558|    0.054665|
|         203|           0|   -1.721489|    0.799120|    0.726889|    3.706102|   -0.415039|    0.055227|
|         204|           0|   -1.743542|    0.774220|    0.718151|    3.688151|   -0.415504|    0.055807|
|         205|           0|   -1.766799|    0.750043|    0.712961|    3.668560|   -0.415957|    0.056398|
|         206|           0|   -1.790892|    0.727217|    0.710312|    3.647615|   -0.416389|    0.056991|
|         207|           0|   -1.815461|    0.706448|    0.709155|    3.625639|   -0.416801|    0.057580|
|         208|           0|   -1.840106|    0.688001|    0.708601|    3.602998|   -0.417188|    0.058157|
|         209|           0|   -1.864371|    0.672232|    0.707949|    3.580123|   -0.417550|    0.058715|
|         210|           0|   -1.888009|    0.659183|    0.706542|    3.557207|   -0.417883|    0.059247|
+-----------------------------------------------------------------------+
|        File Writing Summary       |              Filename             |
+-----------------------------------------------------------------------+
|SU2 restart                        |solution_flow.dat                  |
|Paraview                           |flow.vtu                           |
|Paraview surface                   |surface_flow.vtu                   |
+-----------------------------------------------------------------------+

Writing the forces breakdown file (forces_breakdown.dat).
+-------------------------------------------------------------------------------------------------------+
|  Inner_Iter|   Time_Iter|    rms[Rho]|   rms[RhoU]|   rms[RhoV]|   rms[RhoE]|          CL|          CD|
+-------------------------------------------------------------------------------------------------------+
|         211|           0|   -1.910739|    0.648800|    0.703999|    3.534529|   -0.418188|    0.059748|
|         212|           0|   -1.932446|    0.640767|    0.700065|    3.512189|   -0.418461|    0.060212|
|         213|           0|   -1.952934|    0.634836|    0.694617|    3.490449|   -0.418703|    0.060634|
|         214|           0|   -1.972120|    0.630547|    0.687633|    3.469481|   -0.418917|    0.061011|
|         215|           0|   -1.990013|    0.627322|    0.679247|    3.449413|   -0.419097|    0.061338|
|         216|           0|   -2.006819|    0.624628|    0.669659|    3.430142|   -0.419248|    0.061616|
|         217|           0|   -2.022576|    0.622014|    0.659098|    3.411795|   -0.419370|    0.061840|
|         218|           0|   -2.037469|    0.619360|    0.647788|    3.394258|   -0.419462|    0.062010|
|         219|           0|   -2.051776|    0.616337|    0.635984|    3.377336|   -0.419526|    0.062126|
|         220|           0|   -2.065384|    0.612825|    0.624007|    3.361330|   -0.419568|    0.062189|
+-----------------------------------------------------------------------+
|        File Writing Summary       |              Filename             |
+-----------------------------------------------------------------------+
|SU2 restart                        |solution_flow.dat                  |
|Paraview                           |flow.vtu                           |
|Paraview surface                   |surface_flow.vtu                   |
+-----------------------------------------------------------------------+

Writing the forces breakdown file (forces_breakdown.dat).
+-------------------------------------------------------------------------------------------------------+
|  Inner_Iter|   Time_Iter|    rms[Rho]|   rms[RhoU]|   rms[RhoV]|   rms[RhoE]|          CL|          CD|
+-------------------------------------------------------------------------------------------------------+
|         221|           0|   -2.078336|    0.608832|    0.612065|    3.346224|   -0.419585|    0.062199|
|         222|           0|   -2.090403|    0.604399|    0.600486|    3.332419|   -0.419581|    0.062159|
|         223|           0|   -2.101248|    0.599571|    0.589454|    3.320405|   -0.419560|    0.062072|
|         224|           0|   -2.110568|    0.594413|    0.579083|    3.310577|   -0.419522|    0.061939|
|         225|           0|   -2.118076|    0.589127|    0.569460|    3.303282|   -0.419470|    0.061765|
|         226|           0|   -2.123454|    0.584069|    0.560577|    3.298880|   -0.419407|    0.061554|
|         227|           0|   -2.126527|    0.579573|    0.552459|    3.297547|   -0.419332|    0.061309|
|         228|           0|   -2.127184|    0.575876|    0.545063|    3.299227|   -0.419249|    0.061036|
|         229|           0|   -2.125375|    0.573249|    0.538381|    3.303787|   -0.419158|    0.060738|
|         230|           0|   -2.121156|    0.571974|    0.532490|    3.310929|   -0.419062|    0.060421|
+-----------------------------------------------------------------------+
|        File Writing Summary       |              Filename             |
+-----------------------------------------------------------------------+
|SU2 restart                        |solution_flow.dat                  |
|Paraview                           |flow.vtu                           |
|Paraview surface                   |surface_flow.vtu                   |
+-----------------------------------------------------------------------+

Writing the forces breakdown file (forces_breakdown.dat).
+-------------------------------------------------------------------------------------------------------+
|  Inner_Iter|   Time_Iter|    rms[Rho]|   rms[RhoU]|   rms[RhoV]|   rms[RhoE]|          CL|          CD|
+-------------------------------------------------------------------------------------------------------+
|         231|           0|   -2.115033|    0.572071|    0.527521|    3.319734|   -0.418960|    0.060089|
|         232|           0|   -2.107455|    0.573591|    0.523594|    3.329505|   -0.418856|    0.059747|
|         233|           0|   -2.098884|    0.576527|    0.520896|    3.339625|   -0.418750|    0.059399|
|         234|           0|   -2.089835|    0.580736|    0.519593|    3.349370|   -0.418644|    0.059051|
|         235|           0|   -2.080698|    0.585970|    0.519870|    3.358208|   -0.418538|    0.058706|
|         236|           0|   -2.071663|    0.591977|    0.521834|    3.365967|   -0.418433|    0.058369|
|         237|           0|   -2.062958|    0.598480|    0.525482|    3.372415|   -0.418332|    0.058042|
|         238|           0|   -2.054684|    0.605175|    0.530739|    3.377533|   -0.418234|    0.057732|
|         239|           0|   -2.046841|    0.611678|    0.537417|    3.381419|   -0.418138|    0.057438|
|         240|           0|   -2.039450|    0.617728|    0.545212|    3.384221|   -0.418048|    0.057165|
+-----------------------------------------------------------------------+
|        File Writing Summary       |              Filename             |
+-----------------------------------------------------------------------+
|SU2 restart                        |solution_flow.dat                  |
|Paraview                           |flow.vtu                           |
|Paraview surface                   |surface_flow.vtu                   |
+-----------------------------------------------------------------------+

Writing the forces breakdown file (forces_breakdown.dat).
+-------------------------------------------------------------------------------------------------------+
|  Inner_Iter|   Time_Iter|    rms[Rho]|   rms[RhoU]|   rms[RhoV]|   rms[RhoE]|          CL|          CD|
+-------------------------------------------------------------------------------------------------------+
|         241|           0|   -2.032581|    0.623074|    0.553769|    3.386076|   -0.417961|    0.056913|
|         242|           0|   -2.026067|    0.627464|    0.562725|    3.387417|   -0.417880|    0.056688|
|         243|           0|   -2.019710|    0.630653|    0.571718|    3.388724|   -0.417803|    0.056487|
|         244|           0|   -2.013639|    0.632446|    0.580315|    3.390108|   -0.417733|    0.056313|
|         245|           0|   -2.007741|    0.632768|    0.588240|    3.392041|   -0.417669|    0.056167|
|         246|           0|   -2.001913|    0.631550|    0.595231|    3.394941|   -0.417612|    0.056049|
|         247|           0|   -1.996233|    0.628743|    0.601014|    3.398907|   -0.417561|    0.055957|
|         248|           0|   -1.990683|    0.624335|    0.605454|    3.404138|   -0.417518|    0.055893|
|         249|           0|   -1.985332|    0.618344|    0.608455|    3.410591|   -0.417484|    0.055855|
|         250|           0|   -1.980353|    0.611106|    0.609992|    3.418021|   -0.417457|    0.055843|
+-----------------------------------------------------------------------+
|        File Writing Summary       |              Filename             |
+-----------------------------------------------------------------------+
|SU2 restart                        |solution_flow.dat                  |
|Paraview                           |flow.vtu                           |
|Paraview surface                   |surface_flow.vtu                   |
+-----------------------------------------------------------------------+

Writing the forces breakdown file (forces_breakdown.dat).
+-------------------------------------------------------------------------------------------------------+
|  Inner_Iter|   Time_Iter|    rms[Rho]|   rms[RhoU]|   rms[RhoV]|   rms[RhoE]|          CL|          CD|
+-------------------------------------------------------------------------------------------------------+
|         251|           0|   -1.975587|    0.602617|    0.609994|    3.426476|   -0.417438|    0.055853|
|         252|           0|   -1.971238|    0.593084|    0.608560|    3.435504|   -0.417427|    0.055887|
|         253|           0|   -1.967341|    0.582956|    0.605821|    3.444864|   -0.417427|    0.055940|
|         254|           0|   -1.963881|    0.572622|    0.601888|    3.454291|   -0.417435|    0.056013|
|         255|           0|   -1.960923|    0.562612|    0.597006|    3.463406|   -0.417453|    0.056101|
|         256|           0|   -1.958433|    0.553511|    0.591470|    3.471948|   -0.417480|    0.056204|
|         257|           0|   -1.956329|    0.545962|    0.585716|    3.479765|   -0.417519|    0.056319|
|         258|           0|   -1.954732|    0.540637|    0.580166|    3.486462|   -0.417567|    0.056445|
|         259|           0|   -1.953676|    0.538123|    0.575217|    3.491768|   -0.417627|    0.056579|
|         260|           0|   -1.952854|    0.538730|    0.571224|    3.495959|   -0.417697|    0.056719|
+-----------------------------------------------------------------------+
|        File Writing Summary       |              Filename             |
+-----------------------------------------------------------------------+
|SU2 restart                        |solution_flow.dat                  |
|Paraview                           |flow.vtu                           |
|Paraview surface                   |surface_flow.vtu                   |
+-----------------------------------------------------------------------+

Writing the forces breakdown file (forces_breakdown.dat).
+-------------------------------------------------------------------------------------------------------+
|  Inner_Iter|   Time_Iter|    rms[Rho]|   rms[RhoU]|   rms[RhoV]|   rms[RhoE]|          CL|          CD|
+-------------------------------------------------------------------------------------------------------+
|         261|           0|   -1.952215|    0.542538|    0.568429|    3.498981|   -0.417779|    0.056862|
|         262|           0|   -1.951732|    0.549343|    0.567134|    3.500739|   -0.417872|    0.057009|
|         263|           0|   -1.951218|    0.558594|    0.567439|    3.501300|   -0.417976|    0.057156|
|         264|           0|   -1.950563|    0.569849|    0.569270|    3.500727|   -0.418091|    0.057302|
|         265|           0|   -1.949676|    0.582388|    0.572502|    3.499083|   -0.418219|    0.057445|
|         266|           0|   -1.948404|    0.595501|    0.576941|    3.496607|   -0.418356|    0.057585|
|         267|           0|   -1.946900|    0.608615|    0.582275|    3.493244|   -0.418502|    0.057719|
|         268|           0|   -1.945095|    0.621271|    0.588150|    3.489253|   -0.418657|    0.057849|
|         269|           0|   -1.942800|    0.632996|    0.594206|    3.485092|   -0.418821|    0.057972|
|         270|           0|   -1.940384|    0.643497|    0.600104|    3.480562|   -0.418991|    0.058087|
+-----------------------------------------------------------------------+
|        File Writing Summary       |              Filename             |
+-----------------------------------------------------------------------+
|SU2 restart                        |solution_flow.dat                  |
|Paraview                           |flow.vtu                           |
|Paraview surface                   |surface_flow.vtu                   |
+-----------------------------------------------------------------------+

Writing the forces breakdown file (forces_breakdown.dat).
+-------------------------------------------------------------------------------------------------------+
|  Inner_Iter|   Time_Iter|    rms[Rho]|   rms[RhoU]|   rms[RhoV]|   rms[RhoE]|          CL|          CD|
+-------------------------------------------------------------------------------------------------------+
|         271|           0|   -1.937958|    0.652526|    0.605565|    3.475834|   -0.419166|    0.058194|
|         272|           0|   -1.935418|    0.659892|    0.610268|    3.471447|   -0.419347|    0.058293|
|         273|           0|   -1.932804|    0.665419|    0.613904|    3.467696|   -0.419532|    0.058384|
|         274|           0|   -1.930133|    0.668911|    0.616404|    3.464890|   -0.419717|    0.058467|
|         275|           0|   -1.927566|    0.670410|    0.617636|    3.463129|   -0.419902|    0.058540|
|         276|           0|   -1.925221|    0.669812|    0.617531|    3.462475|   -0.420085|    0.058606|
|         277|           0|   -1.923201|    0.667102|    0.616117|    3.462964|   -0.420265|    0.058664|
|         278|           0|   -1.921697|    0.662378|    0.613418|    3.464432|   -0.420441|    0.058714|
|         279|           0|   -1.920868|    0.655651|    0.609482|    3.466582|   -0.420608|    0.058756|
|         280|           0|   -1.920781|    0.647025|    0.604420|    3.469286|   -0.420768|    0.058792|
+-----------------------------------------------------------------------+
|        File Writing Summary       |              Filename             |
+-----------------------------------------------------------------------+
|SU2 restart                        |solution_flow.dat                  |
|Paraview                           |flow.vtu                           |
|Paraview surface                   |surface_flow.vtu                   |
+-----------------------------------------------------------------------+

Writing the forces breakdown file (forces_breakdown.dat).
+-------------------------------------------------------------------------------------------------------+
|  Inner_Iter|   Time_Iter|    rms[Rho]|   rms[RhoU]|   rms[RhoV]|   rms[RhoE]|          CL|          CD|
+-------------------------------------------------------------------------------------------------------+
|         281|           0|   -1.921565|    0.636614|    0.598453|    3.472233|   -0.420919|    0.058820|
|         282|           0|   -1.923157|    0.624651|    0.591729|    3.475355|   -0.421059|    0.058843|
|         283|           0|   -1.925566|    0.611271|    0.584406|    3.478405|   -0.421185|    0.058859|
|         284|           0|   -1.928990|    0.596708|    0.576716|    3.480807|   -0.421299|    0.058871|
|         285|           0|   -1.933304|    0.581436|    0.568995|    3.482621|   -0.421399|    0.058877|
|         286|           0|   -1.938572|    0.565967|    0.561543|    3.483562|   -0.421484|    0.058879|
|         287|           0|   -1.944828|    0.550951|    0.554591|    3.483404|   -0.421550|    0.058876|
|         288|           0|   -1.951739|    0.536918|    0.548337|    3.482328|   -0.421602|    0.058871|
|         289|           0|   -1.959274|    0.524598|    0.543062|    3.480112|   -0.421638|    0.058862|
|         290|           0|   -1.967157|    0.514522|    0.538883|    3.476929|   -0.421657|    0.058851|
+-----------------------------------------------------------------------+
|        File Writing Summary       |              Filename             |
+-----------------------------------------------------------------------+
|SU2 restart                        |solution_flow.dat                  |
|Paraview                           |flow.vtu                           |
|Paraview surface                   |surface_flow.vtu                   |
+-----------------------------------------------------------------------+

Writing the forces breakdown file (forces_breakdown.dat).
+-------------------------------------------------------------------------------------------------------+
|  Inner_Iter|   Time_Iter|    rms[Rho]|   rms[RhoU]|   rms[RhoV]|   rms[RhoE]|          CL|          CD|
+-------------------------------------------------------------------------------------------------------+
|         291|           0|   -1.975056|    0.507057|    0.535834|    3.472929|   -0.421657|    0.058836|
|         292|           0|   -1.982742|    0.502563|    0.533949|    3.468181|   -0.421642|    0.058819|
|         293|           0|   -1.990098|    0.501218|    0.533196|    3.462631|   -0.421612|    0.058799|
|         294|           0|   -1.996920|    0.502908|    0.533349|    3.456414|   -0.421567|    0.058778|
|         295|           0|   -2.002986|    0.507380|    0.534157|    3.449677|   -0.421506|    0.058753|
|         296|           0|   -2.008264|    0.514032|    0.535398|    3.442424|   -0.421433|    0.058727|
|         297|           0|   -2.012713|    0.522204|    0.536848|    3.434721|   -0.421347|    0.058699|
|         298|           0|   -2.016180|    0.531252|    0.538293|    3.426850|   -0.421252|    0.058670|
|         299|           0|   -2.018688|    0.540599|    0.539552|    3.418984|   -0.421144|    0.058637|
|         300|           0|   -2.020227|    0.549699|    0.540443|    3.411362|   -0.421031|    0.058603|
+-----------------------------------------------------------------------+
|        File Writing Summary       |              Filename             |
+-----------------------------------------------------------------------+
|SU2 restart                        |solution_flow.dat                  |
|Paraview                           |flow.vtu                           |
|Paraview surface                   |surface_flow.vtu                   |
+-----------------------------------------------------------------------+

Writing the forces breakdown file (forces_breakdown.dat).
+-------------------------------------------------------------------------------------------------------+
|  Inner_Iter|   Time_Iter|    rms[Rho]|   rms[RhoU]|   rms[RhoV]|   rms[RhoE]|          CL|          CD|
+-------------------------------------------------------------------------------------------------------+
|         301|           0|   -2.021011|    0.558116|    0.540846|    3.404037|   -0.420912|    0.058567|
|         302|           0|   -2.021164|    0.565416|    0.540590|    3.397140|   -0.420790|    0.058530|
|         303|           0|   -2.020824|    0.571396|    0.539567|    3.390853|   -0.420663|    0.058490|
|         304|           0|   -2.020209|    0.575878|    0.537727|    3.385257|   -0.420537|    0.058450|
|         305|           0|   -2.019428|    0.578712|    0.535019|    3.380569|   -0.420412|    0.058406|
|         306|           0|   -2.018629|    0.579783|    0.531448|    3.376847|   -0.420292|    0.058363|
|         307|           0|   -2.018011|    0.579057|    0.526995|    3.374027|   -0.420174|    0.058316|
|         308|           0|   -2.017882|    0.576631|    0.521752|    3.371875|   -0.420064|    0.058270|
|         309|           0|   -2.018438|    0.572352|    0.515767|    3.370189|   -0.419962|    0.058222|
|         310|           0|   -2.019614|    0.566252|    0.509136|    3.369074|   -0.419870|    0.058173|
+-----------------------------------------------------------------------+
|        File Writing Summary       |              Filename             |
+-----------------------------------------------------------------------+
|SU2 restart                        |solution_flow.dat                  |
|Paraview                           |flow.vtu                           |
|Paraview surface                   |surface_flow.vtu                   |
+-----------------------------------------------------------------------+

Writing the forces breakdown file (forces_breakdown.dat).
+-------------------------------------------------------------------------------------------------------+
|  Inner_Iter|   Time_Iter|    rms[Rho]|   rms[RhoU]|   rms[RhoV]|   rms[RhoE]|          CL|          CD|
+-------------------------------------------------------------------------------------------------------+
|         311|           0|   -2.021545|    0.558409|    0.501964|    3.368310|   -0.419788|    0.058122|
|         312|           0|   -2.024378|    0.548909|    0.494378|    3.367608|   -0.419717|    0.058073|
|         313|           0|   -2.028167|    0.537847|    0.486597|    3.366819|   -0.419661|    0.058022|
|         314|           0|   -2.032915|    0.525225|    0.478656|    3.365821|   -0.419617|    0.057972|
|         315|           0|   -2.038599|    0.511263|    0.470672|    3.364485|   -0.419585|    0.057921|
|         316|           0|   -2.045211|    0.496194|    0.462862|    3.362686|   -0.419569|    0.057872|
|         317|           0|   -2.052752|    0.480236|    0.455316|    3.360271|   -0.419566|    0.057824|
|         318|           0|   -2.061165|    0.463817|    0.448140|    3.357132|   -0.419578|    0.057778|
|         319|           0|   -2.070374|    0.447328|    0.441483|    3.353202|   -0.419602|    0.057732|
|         320|           0|   -2.080040|    0.431152|    0.435405|    3.348697|   -0.419641|    0.057690|
+-----------------------------------------------------------------------+
|        File Writing Summary       |              Filename             |
+-----------------------------------------------------------------------+
|SU2 restart                        |solution_flow.dat                  |
|Paraview                           |flow.vtu                           |
|Paraview surface                   |surface_flow.vtu                   |
+-----------------------------------------------------------------------+

Writing the forces breakdown file (forces_breakdown.dat).
+-------------------------------------------------------------------------------------------------------+
|  Inner_Iter|   Time_Iter|    rms[Rho]|   rms[RhoU]|   rms[RhoV]|   rms[RhoE]|          CL|          CD|
+-------------------------------------------------------------------------------------------------------+
|         321|           0|   -2.089732|    0.415737|    0.429975|    3.343890|   -0.419692|    0.057651|
|         322|           0|   -2.099675|    0.401809|    0.425245|    3.338301|   -0.419755|    0.057614|
|         323|           0|   -2.109596|    0.389893|    0.421146|    3.332062|   -0.419827|    0.057580|
|         324|           0|   -2.119207|    0.380479|    0.417632|    3.325367|   -0.419911|    0.057551|
|         325|           0|   -2.128236|    0.373816|    0.414714|    3.318370|   -0.420003|    0.057525|
|         326|           0|   -2.136617|    0.370083|    0.412313|    3.311007|   -0.420103|    0.057504|
|         327|           0|   -2.144091|    0.369269|    0.410291|    3.303457|   -0.420208|    0.057487|
|         328|           0|   -2.150531|    0.371151|    0.408515|    3.295797|   -0.420319|    0.057475|
|         329|           0|   -2.155966|    0.375330|    0.406902|    3.288027|   -0.420433|    0.057468|
|         330|           0|   -2.160418|    0.381233|    0.405328|    3.280169|   -0.420549|    0.057467|
+-----------------------------------------------------------------------+
|        File Writing Summary       |              Filename             |
+-----------------------------------------------------------------------+
|SU2 restart                        |solution_flow.dat                  |
|Paraview                           |flow.vtu                           |
|Paraview surface                   |surface_flow.vtu                   |
+-----------------------------------------------------------------------+

Writing the forces breakdown file (forces_breakdown.dat).
+-------------------------------------------------------------------------------------------------------+
|  Inner_Iter|   Time_Iter|    rms[Rho]|   rms[RhoU]|   rms[RhoV]|   rms[RhoE]|          CL|          CD|
+-------------------------------------------------------------------------------------------------------+
|         331|           0|   -2.163892|    0.388212|    0.403693|    3.272357|   -0.420664|    0.057469|
|         332|           0|   -2.166441|    0.395700|    0.401896|    3.264708|   -0.420781|    0.057478|
|         333|           0|   -2.168239|    0.403205|    0.399758|    3.257218|   -0.420893|    0.057491|
|         334|           0|   -2.169477|    0.410347|    0.397285|    3.249939|   -0.421003|    0.057510|
|         335|           0|   -2.170214|    0.416894|    0.394460|    3.243033|   -0.421108|    0.057534|
|         336|           0|   -2.170552|    0.422442|    0.391230|    3.236653|   -0.421207|    0.057562|
|         337|           0|   -2.170769|    0.426783|    0.387524|    3.230771|   -0.421299|    0.057595|
|         338|           0|   -2.170991|    0.429762|    0.383378|    3.225495|   -0.421386|    0.057633|
|         339|           0|   -2.171377|    0.431244|    0.378796|    3.220817|   -0.421463|    0.057674|
|         340|           0|   -2.172027|    0.431155|    0.373774|    3.216780|   -0.421532|    0.057720|
+-----------------------------------------------------------------------+
|        File Writing Summary       |              Filename             |
+-----------------------------------------------------------------------+
|SU2 restart                        |solution_flow.dat                  |
|Paraview                           |flow.vtu                           |
|Paraview surface                   |surface_flow.vtu                   |
+-----------------------------------------------------------------------+

Writing the forces breakdown file (forces_breakdown.dat).
+-------------------------------------------------------------------------------------------------------+
|  Inner_Iter|   Time_Iter|    rms[Rho]|   rms[RhoU]|   rms[RhoV]|   rms[RhoE]|          CL|          CD|
+-------------------------------------------------------------------------------------------------------+
|         341|           0|   -2.173144|    0.429499|    0.368364|    3.213226|   -0.421590|    0.057768|
|         342|           0|   -2.174761|    0.426264|    0.362603|    3.210202|   -0.421641|    0.057820|
|         343|           0|   -2.177048|    0.421443|    0.356476|    3.207533|   -0.421681|    0.057873|
|         344|           0|   -2.180034|    0.415024|    0.350095|    3.205163|   -0.421713|    0.057930|
[...]
|         905|           0|   -3.877777|   -1.635278|   -1.793529|    1.594271|   -0.421832|    0.058174|
|         906|           0|   -3.880669|   -1.644612|   -1.796581|    1.592338|   -0.421833|    0.058175|
|         907|           0|   -3.893452|   -1.637620|   -1.801703|    1.580084|   -0.421832|    0.058175|
|         908|           0|   -3.889111|   -1.629215|   -1.807750|    1.585634|   -0.421834|    0.058176|
|         909|           0|   -3.869936|   -1.608702|   -1.800811|    1.604545|   -0.421832|    0.058175|
|         910|           0|   -3.882002|   -1.639946|   -1.803695|    1.593186|   -0.421834|    0.058176|
+-----------------------------------------------------------------------+
|        File Writing Summary       |              Filename             |
+-----------------------------------------------------------------------+
|SU2 restart                        |solution_flow.dat                  |
|Paraview                           |flow.vtu                           |
|Paraview surface                   |surface_flow.vtu                   |
+-----------------------------------------------------------------------+

Writing the forces breakdown file (forces_breakdown.dat).
+-------------------------------------------------------------------------------------------------------+
|  Inner_Iter|   Time_Iter|    rms[Rho]|   rms[RhoU]|   rms[RhoV]|   rms[RhoE]|          CL|          CD|
+-------------------------------------------------------------------------------------------------------+
|         911|           0|   -3.891438|   -1.639422|   -1.815389|    1.584383|   -0.421833|    0.058176|
|         912|           0|   -3.894540|   -1.656868|   -1.818754|    1.580526|   -0.421834|    0.058176|
|         913|           0|   -3.876082|   -1.640400|   -1.804984|    1.598237|   -0.421832|    0.058175|
|         914|           0|   -3.885984|   -1.638046|   -1.810584|    1.588484|   -0.421833|    0.058175|
|         915|           0|   -3.895049|   -1.626253|   -1.821067|    1.579369|   -0.421832|    0.058174|
|         916|           0|   -3.891810|   -1.635356|   -1.817046|    1.583559|   -0.421834|    0.058175|
|         917|           0|   -3.873749|   -1.622543|   -1.808800|    1.600205|   -0.421832|    0.058174|
|         918|           0|   -3.882189|   -1.638452|   -1.815158|    1.592688|   -0.421834|    0.058174|
|         919|           0|   -3.891515|   -1.594423|   -1.819131|    1.583726|   -0.421833|    0.058173|
|         920|           0|   -3.894484|   -1.629382|   -1.822868|    1.578794|   -0.421833|    0.058173|
+-----------------------------------------------------------------------+
|        File Writing Summary       |              Filename             |
+-----------------------------------------------------------------------+
|SU2 restart                        |solution_flow.dat                  |
|Paraview                           |flow.vtu                           |
|Paraview surface                   |surface_flow.vtu                   |
+-----------------------------------------------------------------------+

Writing the forces breakdown file (forces_breakdown.dat).
+-------------------------------------------------------------------------------------------------------+
|  Inner_Iter|   Time_Iter|    rms[Rho]|   rms[RhoU]|   rms[RhoV]|   rms[RhoE]|          CL|          CD|
+-------------------------------------------------------------------------------------------------------+
|         921|           0|   -3.875141|   -1.631104|   -1.813923|    1.597287|   -0.421831|    0.058172|
|         922|           0|   -3.884468|   -1.626081|   -1.816380|    1.588513|   -0.421833|    0.058173|
|         923|           0|   -3.896696|   -1.624463|   -1.828549|    1.575343|   -0.421832|    0.058172|
|         924|           0|   -3.897795|   -1.639783|   -1.831811|    1.573657|   -0.421833|    0.058172|
|         925|           0|   -3.874144|   -1.618563|   -1.818520|    1.598654|   -0.421831|    0.058171|
|         926|           0|   -3.881482|   -1.614953|   -1.824771|    1.591284|   -0.421832|    0.058172|
|         927|           0|   -3.893948|   -1.634398|   -1.838883|    1.577980|   -0.421831|    0.058171|
|         928|           0|   -3.888447|   -1.592525|   -1.834207|    1.584357|   -0.421832|    0.058171|
|         929|           0|   -3.875125|   -1.611963|   -1.830840|    1.597072|   -0.421831|    0.058170|
|         930|           0|   -3.885315|   -1.637359|   -1.838778|    1.586289|   -0.421831|    0.058170|
+-----------------------------------------------------------------------+
|        File Writing Summary       |              Filename             |
+-----------------------------------------------------------------------+
|SU2 restart                        |solution_flow.dat                  |
|Paraview                           |flow.vtu                           |
|Paraview surface                   |surface_flow.vtu                   |
+-----------------------------------------------------------------------+

Writing the forces breakdown file (forces_breakdown.dat).
+-------------------------------------------------------------------------------------------------------+
|  Inner_Iter|   Time_Iter|    rms[Rho]|   rms[RhoU]|   rms[RhoV]|   rms[RhoE]|          CL|          CD|
+-------------------------------------------------------------------------------------------------------+
|         931|           0|   -3.895640|   -1.635408|   -1.846871|    1.575907|   -0.421831|    0.058169|
|         932|           0|   -3.891147|   -1.630342|   -1.852414|    1.582365|   -0.421832|    0.058169|
|         933|           0|   -3.878208|   -1.644283|   -1.849449|    1.595411|   -0.421829|    0.058168|
|         934|           0|   -3.881881|   -1.611467|   -1.847193|    1.591816|   -0.421830|    0.058168|
|         935|           0|   -3.894237|   -1.635110|   -1.862053|    1.578384|   -0.421830|    0.058168|
|         936|           0|   -3.897882|   -1.663995|   -1.869815|    1.574999|   -0.421830|    0.058168|
|         937|           0|   -3.876854|   -1.647818|   -1.860773|    1.599182|   -0.421829|    0.058167|
|         938|           0|   -3.880751|   -1.630555|   -1.863916|    1.595185|   -0.421830|    0.058168|
|         939|           0|   -3.893241|   -1.667640|   -1.876938|    1.581413|   -0.421829|    0.058167|
|         940|           0|   -3.896577|   -1.673741|   -1.879996|    1.578591|   -0.421830|    0.058167|
+-----------------------------------------------------------------------+
|        File Writing Summary       |              Filename             |
+-----------------------------------------------------------------------+
|SU2 restart                        |solution_flow.dat                  |
|Paraview                           |flow.vtu                           |
|Paraview surface                   |surface_flow.vtu                   |
+-----------------------------------------------------------------------+

Writing the forces breakdown file (forces_breakdown.dat).
+-------------------------------------------------------------------------------------------------------+
|  Inner_Iter|   Time_Iter|    rms[Rho]|   rms[RhoU]|   rms[RhoV]|   rms[RhoE]|          CL|          CD|
+-------------------------------------------------------------------------------------------------------+
|         941|           0|   -3.887749|   -1.617634|   -1.876149|    1.587754|   -0.421828|    0.058167|
|         942|           0|   -3.891302|   -1.675411|   -1.880924|    1.583600|   -0.421829|    0.058167|
|         943|           0|   -3.897555|   -1.684055|   -1.884373|    1.577257|   -0.421828|    0.058167|
|         944|           0|   -3.896062|   -1.663673|   -1.881263|    1.579586|   -0.421830|    0.058167|
|         945|           0|   -3.892778|   -1.645350|   -1.887396|    1.582765|   -0.421828|    0.058167|
|         946|           0|   -3.900987|   -1.687482|   -1.896827|    1.574774|   -0.421829|    0.058167|
|         947|           0|   -3.886276|   -1.662876|   -1.880972|    1.590727|   -0.421829|    0.058167|
|         948|           0|   -3.889921|   -1.632375|   -1.883706|    1.586193|   -0.421829|    0.058168|
|         949|           0|   -3.890036|   -1.672727|   -1.893161|    1.585090|   -0.421828|    0.058168|
|         950|           0|   -3.902224|   -1.671464|   -1.891213|    1.572323|   -0.421828|    0.058168|
+-----------------------------------------------------------------------+
|        File Writing Summary       |              Filename             |
+-----------------------------------------------------------------------+
|SU2 restart                        |solution_flow.dat                  |
|Paraview                           |flow.vtu                           |
|Paraview surface                   |surface_flow.vtu                   |
+-----------------------------------------------------------------------+

Writing the forces breakdown file (forces_breakdown.dat).
+-------------------------------------------------------------------------------------------------------+
|  Inner_Iter|   Time_Iter|    rms[Rho]|   rms[RhoU]|   rms[RhoV]|   rms[RhoE]|          CL|          CD|
+-------------------------------------------------------------------------------------------------------+
|         951|           0|   -3.903025|   -1.673451|   -1.892704|    1.571763|   -0.421828|    0.058168|
|         952|           0|   -3.895829|   -1.668906|   -1.892630|    1.579581|   -0.421829|    0.058169|
|         953|           0|   -3.886685|   -1.666536|   -1.897238|    1.590956|   -0.421829|    0.058168|
|         954|           0|   -3.896505|   -1.648645|   -1.897475|    1.578890|   -0.421830|    0.058169|
|         955|           0|   -3.889620|   -1.667152|   -1.889716|    1.584701|   -0.421828|    0.058169|
|         956|           0|   -3.892911|   -1.671708|   -1.892399|    1.581717|   -0.421830|    0.058169|
|         957|           0|   -3.892223|   -1.643593|   -1.891587|    1.582393|   -0.421829|    0.058169|
|         958|           0|   -3.897677|   -1.639747|   -1.900481|    1.577116|   -0.421830|    0.058169|
|         959|           0|   -3.887439|   -1.663583|   -1.894001|    1.587259|   -0.421830|    0.058169|
|         960|           0|   -3.890690|   -1.619156|   -1.888709|    1.583326|   -0.421831|    0.058170|
+-----------------------------------------------------------------------+
|        File Writing Summary       |              Filename             |
+-----------------------------------------------------------------------+
|SU2 restart                        |solution_flow.dat                  |
|Paraview                           |flow.vtu                           |
|Paraview surface                   |surface_flow.vtu                   |
+-----------------------------------------------------------------------+

Writing the forces breakdown file (forces_breakdown.dat).
+-------------------------------------------------------------------------------------------------------+
|  Inner_Iter|   Time_Iter|    rms[Rho]|   rms[RhoU]|   rms[RhoV]|   rms[RhoE]|          CL|          CD|
+-------------------------------------------------------------------------------------------------------+
|         961|           0|   -3.895781|   -1.639975|   -1.903979|    1.577761|   -0.421830|    0.058169|
|         962|           0|   -3.898996|   -1.670073|   -1.910140|    1.575262|   -0.421831|    0.058170|
|         963|           0|   -3.888732|   -1.665549|   -1.896921|    1.584890|   -0.421830|    0.058169|
|         964|           0|   -3.887715|   -1.640581|   -1.902200|    1.587174|   -0.421832|    0.058170|
|         965|           0|   -3.892029|   -1.669824|   -1.915670|    1.582701|   -0.421831|    0.058170|
|         966|           0|   -3.900888|   -1.648209|   -1.916296|    1.572468|   -0.421832|    0.058171|
|         967|           0|   -3.888958|   -1.656829|   -1.899427|    1.584437|   -0.421831|    0.058170|
|         968|           0|   -3.891486|   -1.651432|   -1.908439|    1.582890|   -0.421832|    0.058171|
|         969|           0|   -3.896704|   -1.680925|   -1.928381|    1.578531|   -0.421832|    0.058171|
|         970|           0|   -3.900265|   -1.666179|   -1.924308|    1.575044|   -0.421833|    0.058172|
+-----------------------------------------------------------------------+
|        File Writing Summary       |              Filename             |
+-----------------------------------------------------------------------+
|SU2 restart                        |solution_flow.dat                  |
|Paraview                           |flow.vtu                           |
|Paraview surface                   |surface_flow.vtu                   |
+-----------------------------------------------------------------------+

Writing the forces breakdown file (forces_breakdown.dat).
+-------------------------------------------------------------------------------------------------------+
|  Inner_Iter|   Time_Iter|    rms[Rho]|   rms[RhoU]|   rms[RhoV]|   rms[RhoE]|          CL|          CD|
+-------------------------------------------------------------------------------------------------------+
|         971|           0|   -3.889471|   -1.659304|   -1.914445|    1.584714|   -0.421832|    0.058171|
|         972|           0|   -3.894581|   -1.687769|   -1.924278|    1.580241|   -0.421833|    0.058172|
|         973|           0|   -3.895531|   -1.663333|   -1.930615|    1.579565|   -0.421832|    0.058172|
|         974|           0|   -3.899272|   -1.667698|   -1.936113|    1.576596|   -0.421833|    0.058173|
|         975|           0|   -3.887539|   -1.686666|   -1.928676|    1.588331|   -0.421832|    0.058172|
|         976|           0|   -3.892678|   -1.692526|   -1.930401|    1.583739|   -0.421833|    0.058172|
|         977|           0|   -3.897733|   -1.670019|   -1.944567|    1.578470|   -0.421832|    0.058172|
|         978|           0|   -3.905727|   -1.707165|   -1.951186|    1.569632|   -0.421833|    0.058172|
|         979|           0|   -3.896170|   -1.704766|   -1.937524|    1.578616|   -0.421831|    0.058172|
|         980|           0|   -3.896695|   -1.683408|   -1.930124|    1.579246|   -0.421833|    0.058172|
+-----------------------------------------------------------------------+
|        File Writing Summary       |              Filename             |
+-----------------------------------------------------------------------+
|SU2 restart                        |solution_flow.dat                  |
|Paraview                           |flow.vtu                           |
|Paraview surface                   |surface_flow.vtu                   |
+-----------------------------------------------------------------------+

Writing the forces breakdown file (forces_breakdown.dat).
+-------------------------------------------------------------------------------------------------------+
|  Inner_Iter|   Time_Iter|    rms[Rho]|   rms[RhoU]|   rms[RhoV]|   rms[RhoE]|          CL|          CD|
+-------------------------------------------------------------------------------------------------------+
|         981|           0|   -3.897141|   -1.671205|   -1.945694|    1.578658|   -0.421832|    0.058172|
|         982|           0|   -3.898037|   -1.653328|   -1.947720|    1.578203|   -0.421833|    0.058172|
|         983|           0|   -3.890582|   -1.675588|   -1.931911|    1.585805|   -0.421832|    0.058172|
|         984|           0|   -3.890575|   -1.671226|   -1.936431|    1.586451|   -0.421833|    0.058172|
|         985|           0|   -3.900077|   -1.695443|   -1.953388|    1.576075|   -0.421832|    0.058172|
|         986|           0|   -3.903554|   -1.686809|   -1.945878|    1.572590|   -0.421832|    0.058172|
|         987|           0|   -3.891351|   -1.672660|   -1.938024|    1.584863|   -0.421831|    0.058172|
|         988|           0|   -3.889887|   -1.644009|   -1.937138|    1.586178|   -0.421832|    0.058172|
|         989|           0|   -3.896626|   -1.673605|   -1.940381|    1.579156|   -0.421831|    0.058171|
|         990|           0|   -3.904564|   -1.683774|   -1.949658|    1.570174|   -0.421832|    0.058172|
+-----------------------------------------------------------------------+
|        File Writing Summary       |              Filename             |
+-----------------------------------------------------------------------+
|SU2 restart                        |solution_flow.dat                  |
|Paraview                           |flow.vtu                           |
|Paraview surface                   |surface_flow.vtu                   |
+-----------------------------------------------------------------------+

Writing the forces breakdown file (forces_breakdown.dat).
+-------------------------------------------------------------------------------------------------------+
|  Inner_Iter|   Time_Iter|    rms[Rho]|   rms[RhoU]|   rms[RhoV]|   rms[RhoE]|          CL|          CD|
+-------------------------------------------------------------------------------------------------------+
|         991|           0|   -3.908333|   -1.704373|   -1.951656|    1.566003|   -0.421831|    0.058171|
|         992|           0|   -3.894884|   -1.692422|   -1.945324|    1.581312|   -0.421832|    0.058172|
|         993|           0|   -3.886175|   -1.657444|   -1.935847|    1.589167|   -0.421830|    0.058171|
|         994|           0|   -3.896585|   -1.643489|   -1.948781|    1.578659|   -0.421832|    0.058172|
|         995|           0|   -3.913614|   -1.698677|   -1.964493|    1.561547|   -0.421832|    0.058171|
|         996|           0|   -3.910723|   -1.677517|   -1.952487|    1.563821|   -0.421833|    0.058171|
|         997|           0|   -3.893190|   -1.656748|   -1.947446|    1.581490|   -0.421831|    0.058171|
|         998|           0|   -3.897935|   -1.694853|   -1.954640|    1.577515|   -0.421831|    0.058171|
|         999|           0|   -3.904806|   -1.686182|   -1.953887|    1.570777|   -0.421830|    0.058171|

----------------------------- Solver Exit -------------------------------

Maximum number of iterations reached (ITER = 1000) before convergence.
+-----------------------------------------------------------------------+
|      Convergence Field     |     Value    |   Criterion  |  Converged |
+-----------------------------------------------------------------------+
|                  Cauchy[CD]|   9.38052e-06|       < 1e-10|          No|
+-----------------------------------------------------------------------+
-------------------------------------------------------------------------
+-----------------------------------------------------------------------+
|        File Writing Summary       |              Filename             |
+-----------------------------------------------------------------------+
|SU2 restart                        |solution_flow.dat                  |
|Paraview                           |flow.vtu                           |
|Paraview surface                   |surface_flow.vtu                   |
+-----------------------------------------------------------------------+

Writing the forces breakdown file (forces_breakdown.dat).

------------------------- Solver Postprocessing -------------------------
Deleted CNumerics container.
Deleted CIntegration container.
Deleted CSolver container.
Deleted CIteration container.
Deleted CInterpolator container.
Deleted CInterface container.
Deleted CGeometry container.
Deleted CFreeFormDefBox class.
Deleted CSurfaceMovement class.
Deleted CVolumetricMovement class.
Deleted CConfig container.
Deleted nInst container.
Deleted COutput class.
-------------------------------------------------------------------------

------------------------- Exit Success (SU2_CFD) ------------------------

