
-------------------------------------------------------------------------
|    ___ _   _ ___                                                      |
|   / __| | | |_  )   Release 7.0.3 "Blackbird"                         |
|   \__ \ |_| |/ /                                                      |
|   |___/\___//___|   Suite (Computational Fluid Dynamics Code)         |
|                                                                       |
-------------------------------------------------------------------------
| SU2 Project Website: https://su2code.github.io                        |
|                                                                       |
| The SU2 Project is maintained by the SU2 Foundation                   |
| (http://su2foundation.org)                                            |
-------------------------------------------------------------------------
| Copyright 2012-2020, SU2 Contributors                                 |
|                                                                       |
| SU2 is free software; you can redistribute it and/or                  |
| modify it under the terms of the GNU Lesser General Public            |
| License as published by the Free Software Foundation; either          |
| version 2.1 of the License, or (at your option) any later version.    |
|                                                                       |
| SU2 is distributed in the hope that it will be useful,                |
| but WITHOUT ANY WARRANTY; without even the implied warranty of        |
| MERCHANTABILITY or FITNESS FOR A PARTICULAR PURPOSE. See the GNU      |
| Lesser General Public License for more details.                       |
|                                                                       |
| You should have received a copy of the GNU Lesser General Public      |
| License along with SU2. If not, see <http://www.gnu.org/licenses/>.   |
-------------------------------------------------------------------------

Parsing config file for zone 0

----------------- Physical Case Definition ( Zone 0 ) -------------------
Compressible Euler equations.
Mach number: 0.294.
Angle of attack (AoA): 10 deg, and angle of sideslip (AoS): 0 deg.
No restart solution, use the values at infinity (freestream).
Dimensional simulation.
The reference area is 10 m^2.
The semi-span will be computed using the max y(3D) value.
The reference length is 1 m.
Reference origin for moment evaluation is (0, 0, 0).
Surface(s) where the force coefficients are evaluated: Wing_1.

Surface(s) where the objective function is evaluated: airfoil.
Surface(s) plotted in the output file: Wing_1.
Surface(s) to be analyzed in detail: airfoil.
Surface(s) affected by the design variables: Wing_1.
Input mesh file name: deformed.su2

--------------- Space Numerical Integration ( Zone 0 ) ------------------
Roe (with entropy fix = 0) solver for the flow inviscid terms.
Roe with DDES's FD low-dissipation function.
Second order integration in space, with slope limiter.
Venkatakrishnan slope-limiting method, with constant: 0.05. 
The reference element size is: 1. 
Gradient for upwind reconstruction: Green-Gauss.
Gradient for viscous and source terms: Green-Gauss.

--------------- Time Numerical Integration  ( Zone 0 ) ------------------
Local time stepping (steady state simulation).
Euler implicit method for the flow equations.
FGMRES is used for solving the linear system.
Using a ILU(0) preconditioning.
Convergence criteria of the linear solver: 1e-06.
Max number of linear iterations: 5.
V Multigrid Cycle, with 3 multigrid levels.
Damping factor for the residual restriction: 0.75.
Damping factor for the correction prolongation: 0.75.
No CFL adaptation.
+-------------------------------------------+
|  MG Level| Presmooth|PostSmooth|CorrectSmo|
+-------------------------------------------+
|         0|         1|         0|         0|
|         1|         2|         0|         0|
|         2|         3|         0|         0|
|         3|         3|         0|         0|
+-------------------------------------------+
Courant-Friedrichs-Lewy number:        1

------------------ Convergence Criteria  ( Zone 0 ) ---------------------
Maximum number of solver subiterations: 1000.
Begin convergence monitoring at iteration 10.
Residual minimum value: 1e-8.
Cauchy series min. value: 1e-10.
Number of Cauchy elements: 100.
Begin windowed time average at iteration 15.

-------------------- Output Information ( Zone 0 ) ----------------------
Writing solution files every 10 iterations.
Writing the convergence history file every 1 inner iterations.
Writing the screen convergence history every 1 inner iterations.
The tabular file format is Tecplot (.dat).
Convergence history file name: history.
Forces breakdown file name: forces_breakdown.dat.
Surface file name: surface_flow.
Volume file name: flow.
Restart file name: solution_flow.dat.

------------- Config File Boundary Information ( Zone 0 ) ---------------
+-----------------------------------------------------------------------+
|                        Marker Type|                        Marker Name|
+-----------------------------------------------------------------------+
|                         Euler wall|                             Wing_1|
+-----------------------------------------------------------------------+
|                          Far-field|                           Farfield|
+-----------------------------------------------------------------------+
|                     Symmetry plane|                                  0|
+-----------------------------------------------------------------------+
|           Deformable mesh boundary|                            airfoil|
+-----------------------------------------------------------------------+

-------------------- Output Preprocessing ( Zone 0 ) --------------------
Screen output fields: INNER_ITER, TIME_ITER, RMS_DENSITY, RMS_MOMENTUM-X, RMS_MOMENTUM-Y, RMS_ENERGY, LIFT, DRAG
  Info: Ignoring the following history output groups:
  TIME_ITER
History output group(s): ITER, RMS_RES, AERO_COEFF
Warning: No (valid) fields chosen for convergence monitoring. Convergence monitoring inactive.
Warning: No (valid) fields chosen for time convergence monitoring. Time convergence monitoring inactive.
Volume output fields: COORDINATES, SOLUTION, PRIMITIVE

------------------- Geometry Preprocessing ( Zone 0 ) -------------------
Three dimensional problem.
142678 grid points before partitioning.
739205 volume elements before partitioning.
2 surface markers.
99234 boundary elements in index 0 (Marker = Wing_1).
1280 boundary elements in index 1 (Marker = Farfield).
Executing the partitioning functions.
Building the graph adjacency structure.
Calling ParMETIS... graph partitioning complete (18884 edge cuts).
Distributing ParMETIS coloring.
Rebalancing vertices.
Rebalancing volume element connectivity.
Rebalancing markers and surface elements.
153425 vertices including ghost points. 
767118 interior elements including halo cells. 
767118 tetrahedra.
Establishing MPI communication patterns.
Setting point connectivity.
Renumbering points (Reverse Cuthill McKee Ordering).
Recomputing point connectivity.
Setting element connectivity.
Checking the numerical grid orientation.
Identifying edges and vertices.
Computing centers of gravity.
Setting the control volume structure.
Volume of the computational grid: 587307.
Searching for the closest normal neighbors to the surfaces.
Storing a mapping from global to local point index.
Compute the surface curvature.
Max K: 954.928. Mean K: 12.89. Standard deviation K: 55.0212.
Checking for periodicity.
Computing mesh quality statistics for the dual control volumes.
+--------------------------------------------------------------+
|           Mesh Quality Metric|        Minimum|        Maximum|
+--------------------------------------------------------------+
|    Orthogonality Angle (deg.)|        46.6158|        85.7682|
|     CV Face Area Aspect Ratio|        1.42461|        37.0912|
|           CV Sub-Volume Ratio|        1.02914|        142.578|
+--------------------------------------------------------------+
Setting the multigrid structure.
+-------------------------------------------+
|  MG Level|       CVs|Aggl. Rate|       CFL|
+-------------------------------------------+
|         0|    153425|    1/1.00|         1|
|         1|     27876|     1/5.5|  0.849577|
|         2|      6802|     1/4.1|  0.796335|
Finding max control volume width.
Communicating number of neighbors.
Semi-span length = 4.99408 m.
Wetted area = 42.1916 m^2.
Area projection in the x-plane = 3.07134 m^2, y-plane = 1.45559 m^2, z-plane = 20.1074 m^2.
Max. coordinate in the x-direction = 1.0223 m, y-direction = 4.99408 m, z-direction = 0.461497 m.
Min. coordinate in the x-direction = -1.02365 m, y-direction = -4.9936 m, z-direction = -0.119672 m.
Checking if Euler & Symmetry markers are straight/plane:
Boundary marker Wing_1 is NOT a single plane.
Boundary marker 0 is a single plane.

-------------------- Solver Preprocessing ( Zone 0 ) --------------------
Inviscid flow: Computing density based on free-stream
temperature and pressure using the ideal gas law.
Force coefficients computed using free-stream values.

-- Models:
+------------------------------------------------------------------------------+
|          Viscosity Model|        Conductivity Model|              Fluid Model|
+------------------------------------------------------------------------------+
|                        -|                         -|             STANDARD_AIR|
+------------------------------------------------------------------------------+
-- Fluid properties:
+------------------------------------------------------------------------------+
|                  Name|    Dim. value|    Ref. value|      Unit|Non-dim. value|
+------------------------------------------------------------------------------+
|          Gas Constant|       287.058|             1|  N.m/kg.K|       287.058|
|      Spec. Heat Ratio|             -|             -|         -|           1.4|
+------------------------------------------------------------------------------+
-- Initial and free-stream conditions:
+------------------------------------------------------------------------------+
|                  Name|    Dim. value|    Ref. value|      Unit|Non-dim. value|
+------------------------------------------------------------------------------+
|       Static Pressure|        101325|             1|        Pa|        101325|
|               Density|       1.22498|             1|    kg/m^3|       1.22498|
|           Temperature|        288.15|             1|         K|        288.15|
|          Total Energy|        211794|             1|   m^2/s^2|        211794|
|            Velocity-X|       98.5274|             1|       m/s|       98.5274|
|            Velocity-Y|             0|             1|       m/s|             0|
|            Velocity-Z|        17.373|             1|       m/s|        17.373|
|    Velocity Magnitude|       100.047|             1|       m/s|       100.047|
+------------------------------------------------------------------------------+
|           Mach Number|             -|             -|         -|         0.294|
+------------------------------------------------------------------------------+
Initialize Jacobian structure (Euler). MG level: 0.
Initialize Jacobian structure (Euler). MG level: 1.
Initialize Jacobian structure (Euler). MG level: 2.

------------------- Numerics Preprocessing ( Zone 0 ) -------------------

----------------- Integration Preprocessing ( Zone 0 ) ------------------

------------------- Iteration Preprocessing ( Zone 0 ) ------------------
Euler/Navier-Stokes/RANS fluid iteration.

------------------------------ Begin Solver -----------------------------

Simulation Run using the Single-zone Driver
+-------------------------------------------------------------------------------------------------------+
|  Inner_Iter|   Time_Iter|    rms[Rho]|   rms[RhoU]|   rms[RhoV]|   rms[RhoE]|          CL|          CD|
+-------------------------------------------------------------------------------------------------------+
|           0|           0|   -1.665314|    0.503128|   -0.378875|    3.803786|    2.080886|    0.935507|
|           1|           0|   -1.773503|    0.412666|   -0.143312|    3.695891|    3.623805|    1.615039|
|           2|           0|   -1.776432|    0.443675|    0.047436|    3.694717|    4.700247|    2.073126|
|           3|           0|   -1.722236|    0.528809|    0.164292|    3.749708|    5.393120|    2.348070|
|           4|           0|   -1.659493|    0.624698|    0.259841|    3.812830|    5.780439|    2.476339|
|           5|           0|   -1.601157|    0.721225|    0.352052|    3.871720|    5.932763|    2.492039|
|           6|           0|   -1.547531|    0.816042|    0.445275|    3.926129|    5.910509|    2.425259|
|           7|           0|   -1.497596|    0.907319|    0.539073|    3.976969|    5.764432|    2.301529|
|           8|           0|   -1.451131|    0.993540|    0.631953|    4.024354|    5.537105|    2.142298|
|           9|           0|   -1.408482|    1.073540|    0.722355|    4.067836|    5.263034|    1.965071|
|          10|           0|   -1.370431|    1.146720|    0.809075|    4.106571|    4.967129|    1.782851|
+-----------------------------------------------------------------------+
|        File Writing Summary       |              Filename             |
+-----------------------------------------------------------------------+
|SU2 restart                        |solution_flow.dat                  |
|Paraview                           |flow.vtu                           |
|Paraview surface                   |surface_flow.vtu                   |
+-----------------------------------------------------------------------+

Writing the forces breakdown file (forces_breakdown.dat).
+-------------------------------------------------------------------------------------------------------+
|  Inner_Iter|   Time_Iter|    rms[Rho]|   rms[RhoU]|   rms[RhoV]|   rms[RhoE]|          CL|          CD|
+-------------------------------------------------------------------------------------------------------+
|          11|           0|   -1.337424|    1.212917|    0.891140|    4.140050|    4.665894|    1.604302|
|          12|           0|   -1.310025|    1.272058|    0.967883|    4.167610|    4.370153|    1.435078|
|          13|           0|   -1.288486|    1.324260|    1.038771|    4.188883|    4.086078|    1.278235|
|          14|           0|   -1.272793|    1.369687|    1.103425|    4.203720|    3.816041|    1.134702|
|          15|           0|   -1.262769|    1.408513|    1.161725|    4.212105|    3.559807|    1.003997|
|          16|           0|   -1.257853|    1.440908|    1.213587|    4.214334|    3.315458|    0.884758|
|          17|           0|   -1.256952|    1.467008|    1.259028|    4.211234|    3.080275|    0.775190|
|          18|           0|   -1.258295|    1.487017|    1.298062|    4.204415|    2.851296|    0.673395|
|          19|           0|   -1.259357|    1.501085|    1.330683|    4.196532|    2.625796|    0.577600|
|          20|           0|   -1.257322|    1.509473|    1.357070|    4.191108|    2.401594|    0.486325|
+-----------------------------------------------------------------------+
|        File Writing Summary       |              Filename             |
+-----------------------------------------------------------------------+
|SU2 restart                        |solution_flow.dat                  |
|Paraview                           |flow.vtu                           |
|Paraview surface                   |surface_flow.vtu                   |
+-----------------------------------------------------------------------+

Writing the forces breakdown file (forces_breakdown.dat).
+-------------------------------------------------------------------------------------------------------+
|  Inner_Iter|   Time_Iter|    rms[Rho]|   rms[RhoU]|   rms[RhoV]|   rms[RhoE]|          CL|          CD|
+-------------------------------------------------------------------------------------------------------+
|          21|           0|   -1.249624|    1.512399|    1.377317|    4.192079|    2.177205|    0.398440|
|          22|           0|   -1.234635|    1.510322|    1.391644|    4.202737|    1.952009|    0.313222|
|          23|           0|   -1.213061|    1.504040|    1.400235|    4.223325|    1.726172|    0.230333|
|          24|           0|   -1.187265|    1.493782|    1.403535|    4.251088|    1.500630|    0.149792|
|          25|           0|   -1.160201|    1.480428|    1.401935|    4.282048|    1.276901|    0.071897|
|          26|           0|   -1.134544|    1.465089|    1.395867|    4.312469|    1.056966|   -0.002847|
|          27|           0|   -1.112314|    1.448847|    1.385777|    4.339492|    0.843096|   -0.073811|
|          28|           0|   -1.094727|    1.432520|    1.372617|    4.361431|    0.637650|   -0.140322|
|          29|           0|   -1.082079|    1.416660|    1.356824|    4.377792|    0.442978|   -0.201702|
|          30|           0|   -1.074538|    1.401677|    1.339043|    4.388207|    0.261283|   -0.257331|
+-----------------------------------------------------------------------+
|        File Writing Summary       |              Filename             |
+-----------------------------------------------------------------------+
|SU2 restart                        |solution_flow.dat                  |
|Paraview                           |flow.vtu                           |
|Paraview surface                   |surface_flow.vtu                   |
+-----------------------------------------------------------------------+

Writing the forces breakdown file (forces_breakdown.dat).
+-------------------------------------------------------------------------------------------------------+
|  Inner_Iter|   Time_Iter|    rms[Rho]|   rms[RhoU]|   rms[RhoV]|   rms[RhoE]|          CL|          CD|
+-------------------------------------------------------------------------------------------------------+
|          31|           0|   -1.071138|    1.387836|    1.319563|    4.393554|    0.094586|   -0.306663|
|          32|           0|   -1.070806|    1.375988|    1.299210|    4.394810|   -0.055338|   -0.349261|
|          33|           0|   -1.072102|    1.367427|    1.278409|    4.393436|   -0.186984|   -0.384805|
|          34|           0|   -1.072491|    1.362577|    1.258212|    4.391862|   -0.299120|   -0.413074|
|          35|           0|   -1.070152|    1.362334|    1.239656|    4.392201|   -0.390799|   -0.433955|
|          36|           0|   -1.064649|    1.367776|    1.226169|    4.395383|   -0.461339|   -0.447433|
|          37|           0|   -1.055695|    1.380387|    1.220671|    4.402204|   -0.510321|   -0.453575|
|          38|           0|   -1.044582|    1.400208|    1.227370|    4.411535|   -0.537543|   -0.452516|
|          39|           0|   -1.032672|    1.425722|    1.247461|    4.422331|   -0.543004|   -0.444442|
|          40|           0|   -1.021929|    1.453442|    1.278838|    4.432400|   -0.526904|   -0.429595|
+-----------------------------------------------------------------------+
|        File Writing Summary       |              Filename             |
+-----------------------------------------------------------------------+
|SU2 restart                        |solution_flow.dat                  |
|Paraview                           |flow.vtu                           |
|Paraview surface                   |surface_flow.vtu                   |
+-----------------------------------------------------------------------+

Writing the forces breakdown file (forces_breakdown.dat).
+-------------------------------------------------------------------------------------------------------+
|  Inner_Iter|   Time_Iter|    rms[Rho]|   rms[RhoU]|   rms[RhoV]|   rms[RhoE]|          CL|          CD|
+-------------------------------------------------------------------------------------------------------+
|          41|           0|   -1.014510|    1.480946|    1.318271|    4.439286|   -0.489674|   -0.408267|
|          42|           0|   -1.011507|    1.507230|    1.361032|    4.441732|   -0.431941|   -0.380792|
|          43|           0|   -1.013069|    1.530290|    1.402504|    4.439155|   -0.354527|   -0.347549|
|          44|           0|   -1.019028|    1.548487|    1.440007|    4.431530|   -0.258456|   -0.308964|
|          45|           0|   -1.029317|    1.561594|    1.471792|    4.418898|   -0.144950|   -0.265508|
|          46|           0|   -1.040625|    1.568541|    1.496697|    4.404376|   -0.015444|   -0.217700|
|          47|           0|   -1.051944|    1.569820|    1.514525|    4.389448|    0.128404|   -0.166114|
|          48|           0|   -1.060748|    1.564818|    1.525462|    4.377075|    0.284757|   -0.111368|
|          49|           0|   -1.063905|    1.553863|    1.529594|    4.371439|    0.451632|   -0.054118|
|          50|           0|   -1.060780|    1.536164|    1.526682|    4.373648|    0.626896|    0.004937|
+-----------------------------------------------------------------------+
|        File Writing Summary       |              Filename             |
+-----------------------------------------------------------------------+
|SU2 restart                        |solution_flow.dat                  |
|Paraview                           |flow.vtu                           |
|Paraview surface                   |surface_flow.vtu                   |
+-----------------------------------------------------------------------+

Writing the forces breakdown file (forces_breakdown.dat).
+-------------------------------------------------------------------------------------------------------+
|  Inner_Iter|   Time_Iter|    rms[Rho]|   rms[RhoU]|   rms[RhoV]|   rms[RhoE]|          CL|          CD|
+-------------------------------------------------------------------------------------------------------+
|          51|           0|   -1.052459|    1.512398|    1.517462|    4.383090|    0.808287|    0.065066|
|          52|           0|   -1.040192|    1.483157|    1.501884|    4.398387|    0.993483|    0.125516|
|          53|           0|   -1.026579|    1.450517|    1.481453|    4.416098|    1.180122|    0.185524|
|          54|           0|   -1.014109|    1.417407|    1.457622|    4.433134|    1.365796|    0.244324|
|          55|           0|   -1.004557|    1.387259|    1.432216|    4.447112|    1.548139|    0.301162|
|          56|           0|   -0.998772|    1.363638|    1.408174|    4.456924|    1.724839|    0.355310|
|          57|           0|   -0.996838|    1.351546|    1.389229|    4.462330|    1.893701|    0.406083|
|          58|           0|   -1.000380|    1.350803|    1.379480|    4.461375|    2.052674|    0.452849|
|          59|           0|   -1.008210|    1.360766|    1.381067|    4.455275|    2.199866|    0.495039|
|          60|           0|   -1.019935|    1.377767|    1.392760|    4.444200|    2.333590|    0.532161|
+-----------------------------------------------------------------------+
|        File Writing Summary       |              Filename             |
+-----------------------------------------------------------------------+
|SU2 restart                        |solution_flow.dat                  |
|Paraview                           |flow.vtu                           |
|Paraview surface                   |surface_flow.vtu                   |
+-----------------------------------------------------------------------+

Writing the forces breakdown file (forces_breakdown.dat).
+-------------------------------------------------------------------------------------------------------+
|  Inner_Iter|   Time_Iter|    rms[Rho]|   rms[RhoU]|   rms[RhoV]|   rms[RhoE]|          CL|          CD|
+-------------------------------------------------------------------------------------------------------+
|          61|           0|   -1.034773|    1.398611|    1.411568|    4.428662|    2.452410|    0.563811|
|          62|           0|   -1.051130|    1.420245|    1.434068|    4.409909|    2.555152|    0.589678|
|          63|           0|   -1.067595|    1.440212|    1.456963|    4.389185|    2.640923|    0.609550|
|          64|           0|   -1.082986|    1.458101|    1.478263|    4.367721|    2.709115|    0.623317|
|          65|           0|   -1.097420|    1.472629|    1.496400|    4.345613|    2.759414|    0.630971|
|          66|           0|   -1.108804|    1.482900|    1.510728|    4.325685|    2.791789|    0.632599|
|          67|           0|   -1.116285|    1.488700|    1.520876|    4.309600|    2.806500|    0.628382|
|          68|           0|   -1.120958|    1.490638|    1.526828|    4.297314|    2.804071|    0.618594|
|          69|           0|   -1.123665|    1.488947|    1.528414|    4.288986|    2.785272|    0.603587|
|          70|           0|   -1.125426|    1.483171|    1.525560|    4.284006|    2.751108|    0.583791|
+-----------------------------------------------------------------------+
|        File Writing Summary       |              Filename             |
+-----------------------------------------------------------------------+
|SU2 restart                        |solution_flow.dat                  |
|Paraview                           |flow.vtu                           |
|Paraview surface                   |surface_flow.vtu                   |
+-----------------------------------------------------------------------+

Writing the forces breakdown file (forces_breakdown.dat).
+-------------------------------------------------------------------------------------------------------+
|  Inner_Iter|   Time_Iter|    rms[Rho]|   rms[RhoU]|   rms[RhoV]|   rms[RhoE]|          CL|          CD|
+-------------------------------------------------------------------------------------------------------+
|          71|           0|   -1.126378|    1.473194|    1.518450|    4.282681|    2.702774|    0.559691|
|          72|           0|   -1.127681|    1.459609|    1.507219|    4.283183|    2.641636|    0.531830|
|          73|           0|   -1.128989|    1.442156|    1.492089|    4.285694|    2.569194|    0.500784|
|          74|           0|   -1.130632|    1.420772|    1.473642|    4.289254|    2.487034|    0.467154|
|          75|           0|   -1.133224|    1.395461|    1.452123|    4.292584|    2.396825|    0.431553|
|          76|           0|   -1.137134|    1.366803|    1.428114|    4.294814|    2.300276|    0.394597|
|          77|           0|   -1.142610|    1.335305|    1.402117|    4.295280|    2.199108|    0.356893|
|          78|           0|   -1.149811|    1.302858|    1.375949|    4.293468|    2.095015|    0.319021|
|          79|           0|   -1.159343|    1.270397|    1.351087|    4.288657|    1.989629|    0.281534|
|          80|           0|   -1.170530|    1.240325|    1.328698|    4.281494|    1.884496|    0.244943|
+-----------------------------------------------------------------------+
|        File Writing Summary       |              Filename             |
+-----------------------------------------------------------------------+
|SU2 restart                        |solution_flow.dat                  |
|Paraview                           |flow.vtu                           |
|Paraview surface                   |surface_flow.vtu                   |
+-----------------------------------------------------------------------+

Writing the forces breakdown file (forces_breakdown.dat).
+-------------------------------------------------------------------------------------------------------+
|  Inner_Iter|   Time_Iter|    rms[Rho]|   rms[RhoU]|   rms[RhoV]|   rms[RhoE]|          CL|          CD|
+-------------------------------------------------------------------------------------------------------+
|          81|           0|   -1.183631|    1.215566|    1.309961|    4.271648|    1.781064|    0.209712|
|          82|           0|   -1.198260|    1.197224|    1.295826|    4.259226|    1.680673|    0.176256|
|          83|           0|   -1.213603|    1.187170|    1.286748|    4.245072|    1.584550|    0.144942|
|          84|           0|   -1.229537|    1.186260|    1.282299|    4.229311|    1.493773|    0.116075|
|          85|           0|   -1.246118|    1.193306|    1.281447|    4.211778|    1.409273|    0.089904|
|          86|           0|   -1.262926|    1.206404|    1.282946|    4.192876|    1.331843|    0.066619|
|          87|           0|   -1.280132|    1.222472|    1.285636|    4.172418|    1.262117|    0.046354|
|          88|           0|   -1.297291|    1.238811|    1.288650|    4.150843|    1.200586|    0.029186|
|          89|           0|   -1.313609|    1.255304|    1.291200|    4.129220|    1.147607|    0.015146|
|          90|           0|   -1.328689|    1.270102|    1.292895|    4.108326|    1.103402|    0.004213|
+-----------------------------------------------------------------------+
|        File Writing Summary       |              Filename             |
+-----------------------------------------------------------------------+
|SU2 restart                        |solution_flow.dat                  |
|Paraview                           |flow.vtu                           |
|Paraview surface                   |surface_flow.vtu                   |
+-----------------------------------------------------------------------+

Writing the forces breakdown file (forces_breakdown.dat).
+-------------------------------------------------------------------------------------------------------+
|  Inner_Iter|   Time_Iter|    rms[Rho]|   rms[RhoU]|   rms[RhoV]|   rms[RhoE]|          CL|          CD|
+-------------------------------------------------------------------------------------------------------+
|          91|           0|   -1.342250|    1.282598|    1.293227|    4.088606|    1.068078|   -0.003671|
|          92|           0|   -1.353987|    1.292279|    1.292068|    4.070592|    1.041628|   -0.008603|
|          93|           0|   -1.363881|    1.299377|    1.289415|    4.054772|    1.023940|   -0.010707|
|          94|           0|   -1.372178|    1.304380|    1.285336|    4.041362|    1.014798|   -0.010140|
|          95|           0|   -1.379474|    1.306630|    1.279988|    4.029873|    1.013906|   -0.007085|
|          96|           0|   -1.386797|    1.306106|    1.273337|    4.019353|    1.020880|   -0.001744|
|          97|           0|   -1.394494|    1.303709|    1.265384|    4.009529|    1.035299|    0.005676|
|          98|           0|   -1.402813|    1.299513|    1.256507|    4.000025|    1.056667|    0.014951|
|          99|           0|   -1.411887|    1.293131|    1.246332|    3.990680|    1.084461|    0.025857|
|         100|           0|   -1.421999|    1.284930|    1.235017|    3.981217|    1.118143|    0.038171|
+-----------------------------------------------------------------------+
|        File Writing Summary       |              Filename             |
+-----------------------------------------------------------------------+
|SU2 restart                        |solution_flow.dat                  |
|Paraview                           |flow.vtu                           |
|Paraview surface                   |surface_flow.vtu                   |
+-----------------------------------------------------------------------+

Writing the forces breakdown file (forces_breakdown.dat).
+-------------------------------------------------------------------------------------------------------+
|  Inner_Iter|   Time_Iter|    rms[Rho]|   rms[RhoU]|   rms[RhoV]|   rms[RhoE]|          CL|          CD|
+-------------------------------------------------------------------------------------------------------+
|         101|           0|   -1.432865|    1.274754|    1.222740|    3.971961|    1.157103|    0.051661|
|         102|           0|   -1.443760|    1.262420|    1.209740|    3.963776|    1.200728|    0.066105|
|         103|           0|   -1.454707|    1.248306|    1.196357|    3.956504|    1.248369|    0.081275|
|         104|           0|   -1.466301|    1.232972|    1.182624|    3.949248|    1.299370|    0.096955|
|         105|           0|   -1.477781|    1.215755|    1.168553|    3.942743|    1.353067|    0.112937|
|         106|           0|   -1.489102|    1.196639|    1.154271|    3.936927|    1.408788|    0.129020|
|         107|           0|   -1.500321|    1.176550|    1.139842|    3.931397|    1.465880|    0.145014|
|         108|           0|   -1.511549|    1.156155|    1.125476|    3.925935|    1.523683|    0.160741|
|         109|           0|   -1.522654|    1.136026|    1.111244|    3.920508|    1.581558|    0.176034|
|         110|           0|   -1.533840|    1.116854|    1.097437|    3.914609|    1.638896|    0.190741|
+-----------------------------------------------------------------------+
|        File Writing Summary       |              Filename             |
+-----------------------------------------------------------------------+
|SU2 restart                        |solution_flow.dat                  |
|Paraview                           |flow.vtu                           |
|Paraview surface                   |surface_flow.vtu                   |
+-----------------------------------------------------------------------+

Writing the forces breakdown file (forces_breakdown.dat).
+-------------------------------------------------------------------------------------------------------+
|  Inner_Iter|   Time_Iter|    rms[Rho]|   rms[RhoU]|   rms[RhoV]|   rms[RhoE]|          CL|          CD|
+-------------------------------------------------------------------------------------------------------+
|         111|           0|   -1.544763|    1.099432|    1.084357|    3.908339|    1.695105|    0.204723|
|         112|           0|   -1.555973|    1.084283|    1.072588|    3.901028|    1.749622|    0.217854|
|         113|           0|   -1.566525|    1.072173|    1.062525|    3.893539|    1.801911|    0.230025|
|         114|           0|   -1.576056|    1.063618|    1.054447|    3.886102|    1.851476|    0.241139|
|         115|           0|   -1.584833|    1.059002|    1.048630|    3.878314|    1.897861|    0.251113|
|         116|           0|   -1.592775|    1.058296|    1.045161|    3.870240|    1.940660|    0.259886|
|         117|           0|   -1.599734|    1.060912|    1.043884|    3.862003|    1.979523|    0.267410|
|         118|           0|   -1.606069|    1.066509|    1.044673|    3.853218|    2.014142|    0.273652|
|         119|           0|   -1.611607|    1.074703|    1.047116|    3.844263|    2.044250|    0.278587|
|         120|           0|   -1.616873|    1.084474|    1.050791|    3.834728|    2.069652|    0.282211|
+-----------------------------------------------------------------------+
|        File Writing Summary       |              Filename             |
+-----------------------------------------------------------------------+
|SU2 restart                        |solution_flow.dat                  |
|Paraview                           |flow.vtu                           |
|Paraview surface                   |surface_flow.vtu                   |
+-----------------------------------------------------------------------+

Writing the forces breakdown file (forces_breakdown.dat).
+-------------------------------------------------------------------------------------------------------+
|  Inner_Iter|   Time_Iter|    rms[Rho]|   rms[RhoU]|   rms[RhoV]|   rms[RhoE]|          CL|          CD|
+-------------------------------------------------------------------------------------------------------+
|         121|           0|   -1.621619|    1.094781|    1.055277|    3.824936|    2.090201|    0.284531|
|         122|           0|   -1.626712|    1.104737|    1.060068|    3.814199|    2.105794|    0.285564|
|         123|           0|   -1.631999|    1.114162|    1.064747|    3.802956|    2.116381|    0.285340|
|         124|           0|   -1.637421|    1.122712|    1.068892|    3.791569|    2.121979|    0.283901|
|         125|           0|   -1.643282|    1.130077|    1.072042|    3.780025|    2.122649|    0.281301|
|         126|           0|   -1.648787|    1.134526|    1.073864|    3.768920|    2.118525|    0.277607|
|         127|           0|   -1.653822|    1.136852|    1.074028|    3.758982|    2.109811|    0.272902|
|         128|           0|   -1.658242|    1.136667|    1.072103|    3.750574|    2.096740|    0.267277|
|         129|           0|   -1.661631|    1.134269|    1.067837|    3.744674|    2.079588|    0.260825|
|         130|           0|   -1.664038|    1.129354|    1.060872|    3.741420|    2.058691|    0.253653|
+-----------------------------------------------------------------------+
|        File Writing Summary       |              Filename             |
+-----------------------------------------------------------------------+
|SU2 restart                        |solution_flow.dat                  |
|Paraview                           |flow.vtu                           |
|Paraview surface                   |surface_flow.vtu                   |
+-----------------------------------------------------------------------+

Writing the forces breakdown file (forces_breakdown.dat).
+-------------------------------------------------------------------------------------------------------+
|  Inner_Iter|   Time_Iter|    rms[Rho]|   rms[RhoU]|   rms[RhoV]|   rms[RhoE]|          CL|          CD|
+-------------------------------------------------------------------------------------------------------+
|         131|           0|   -1.665149|    1.121794|    1.051120|    3.741202|    2.034416|    0.245871|
|         132|           0|   -1.665245|    1.111756|    1.038488|    3.743646|    2.007154|    0.237594|
|         133|           0|   -1.664419|    1.099337|    1.022728|    3.748461|    1.977329|    0.228938|
|         134|           0|   -1.663175|    1.084656|    1.003719|    3.754747|    1.945378|    0.220022|
|         135|           0|   -1.661439|    1.068589|    0.981714|    3.762461|    1.911758|    0.210966|
|         136|           0|   -1.659921|    1.050569|    0.956298|    3.770198|    1.876931|    0.201885|
|         137|           0|   -1.658932|    1.030517|    0.927660|    3.777442|    1.841371|    0.192895|
|         138|           0|   -1.658412|    1.009282|    0.896233|    3.784148|    1.805548|    0.184105|
|         139|           0|   -1.658237|    0.988004|    0.862680|    3.790281|    1.769926|    0.175620|
|         140|           0|   -1.659203|    0.967523|    0.828091|    3.794810|    1.734956|    0.167536|
+-----------------------------------------------------------------------+
|        File Writing Summary       |              Filename             |
+-----------------------------------------------------------------------+
|SU2 restart                        |solution_flow.dat                  |
|Paraview                           |flow.vtu                           |
|Paraview surface                   |surface_flow.vtu                   |
+-----------------------------------------------------------------------+

Writing the forces breakdown file (forces_breakdown.dat).
+-------------------------------------------------------------------------------------------------------+
|  Inner_Iter|   Time_Iter|    rms[Rho]|   rms[RhoU]|   rms[RhoV]|   rms[RhoE]|          CL|          CD|
+-------------------------------------------------------------------------------------------------------+
|         141|           0|   -1.661631|    0.948888|    0.794182|    3.797012|    1.701057|    0.159938|
|         142|           0|   -1.665299|    0.933704|    0.763400|    3.797204|    1.668629|    0.152906|
|         143|           0|   -1.669914|    0.922912|    0.738752|    3.795640|    1.638046|    0.146507|
|         144|           0|   -1.676196|    0.917100|    0.723179|    3.791528|    1.609650|    0.140801|
|         145|           0|   -1.683345|    0.916228|    0.718488|    3.785642|    1.583756|    0.135836|
|         146|           0|   -1.691482|    0.919426|    0.724373|    3.777534|    1.560636|    0.131649|
|         147|           0|   -1.700368|    0.926136|    0.738794|    3.767533|    1.540530|    0.128265|
|         148|           0|   -1.709634|    0.935544|    0.758774|    3.755952|    1.523634|    0.125698|
|         149|           0|   -1.718945|    0.946279|    0.781467|    3.742937|    1.510073|    0.123943|
|         150|           0|   -1.728016|    0.957112|    0.804654|    3.728665|    1.499920|    0.122982|
+-----------------------------------------------------------------------+
|        File Writing Summary       |              Filename             |
+-----------------------------------------------------------------------+
|SU2 restart                        |solution_flow.dat                  |
|Paraview                           |flow.vtu                           |
|Paraview surface                   |surface_flow.vtu                   |
+-----------------------------------------------------------------------+

Writing the forces breakdown file (forces_breakdown.dat).
+-------------------------------------------------------------------------------------------------------+
|  Inner_Iter|   Time_Iter|    rms[Rho]|   rms[RhoU]|   rms[RhoV]|   rms[RhoE]|          CL|          CD|
+-------------------------------------------------------------------------------------------------------+
|         151|           0|   -1.736271|    0.967662|    0.826811|    3.713816|    1.493222|    0.122791|
|         152|           0|   -1.743238|    0.977271|    0.846842|    3.699028|    1.489980|    0.123338|
|         153|           0|   -1.748213|    0.985600|    0.864253|    3.685436|    1.490128|    0.124575|
|         154|           0|   -1.751319|    0.992242|    0.878654|    3.673440|    1.493596|    0.126455|
|         155|           0|   -1.752595|    0.996729|    0.889899|    3.663600|    1.500259|    0.128921|
|         156|           0|   -1.752255|    0.999128|    0.897931|    3.656392|    1.509960|    0.131911|
|         157|           0|   -1.750591|    0.999486|    0.902773|    3.652033|    1.522503|    0.135357|
|         158|           0|   -1.748348|    0.997352|    0.904562|    3.649931|    1.537665|    0.139189|
|         159|           0|   -1.746082|    0.992709|    0.903371|    3.649667|    1.555197|    0.143334|
|         160|           0|   -1.743613|    0.985832|    0.899233|    3.651596|    1.574838|    0.147718|
+-----------------------------------------------------------------------+
|        File Writing Summary       |              Filename             |
+-----------------------------------------------------------------------+
|SU2 restart                        |solution_flow.dat                  |
|Paraview                           |flow.vtu                           |
|Paraview surface                   |surface_flow.vtu                   |
+-----------------------------------------------------------------------+

Writing the forces breakdown file (forces_breakdown.dat).
+-------------------------------------------------------------------------------------------------------+
|  Inner_Iter|   Time_Iter|    rms[Rho]|   rms[RhoU]|   rms[RhoV]|   rms[RhoE]|          CL|          CD|
+-------------------------------------------------------------------------------------------------------+
|         161|           0|   -1.741477|    0.976698|    0.892092|    3.654870|    1.596301|    0.152268|
|         162|           0|   -1.740151|    0.965492|    0.881934|    3.658653|    1.619287|    0.156911|
|         163|           0|   -1.739564|    0.952198|    0.868990|    3.662846|    1.643486|    0.161575|
|         164|           0|   -1.739882|    0.936502|    0.853693|    3.667028|    1.668585|    0.166192|
|         165|           0|   -1.741506|    0.918767|    0.835855|    3.670521|    1.694260|    0.170699|
|         166|           0|   -1.744483|    0.899047|    0.815571|    3.673043|    1.720193|    0.175035|
|         167|           0|   -1.748702|    0.877820|    0.792996|    3.674489|    1.746059|    0.179140|
|         168|           0|   -1.753981|    0.855365|    0.768400|    3.674996|    1.771557|    0.182963|
|         169|           0|   -1.760181|    0.832401|    0.742402|    3.674588|    1.796381|    0.186457|
|         170|           0|   -1.767130|    0.809545|    0.715827|    3.673240|    1.820257|    0.189583|
+-----------------------------------------------------------------------+
|        File Writing Summary       |              Filename             |
+-----------------------------------------------------------------------+
|SU2 restart                        |solution_flow.dat                  |
|Paraview                           |flow.vtu                           |
|Paraview surface                   |surface_flow.vtu                   |
+-----------------------------------------------------------------------+

Writing the forces breakdown file (forces_breakdown.dat).
+-------------------------------------------------------------------------------------------------------+
|  Inner_Iter|   Time_Iter|    rms[Rho]|   rms[RhoU]|   rms[RhoV]|   rms[RhoE]|          CL|          CD|
+-------------------------------------------------------------------------------------------------------+
|         171|           0|   -1.774638|    0.787530|    0.689741|    3.671012|    1.842924|    0.192311|
|         172|           0|   -1.782520|    0.767505|    0.665392|    3.667945|    1.864154|    0.194617|
|         173|           0|   -1.790497|    0.751008|    0.644255|    3.664137|    1.883720|    0.196478|
|         174|           0|   -1.798604|    0.739102|    0.627993|    3.659362|    1.901417|    0.197880|
|         175|           0|   -1.806925|    0.732597|    0.617966|    3.653376|    1.917074|    0.198814|
|         176|           0|   -1.815430|    0.731598|    0.614804|    3.646025|    1.930535|    0.199275|
|         177|           0|   -1.823720|    0.735676|    0.618412|    3.637673|    1.941677|    0.199268|
|         178|           0|   -1.831462|    0.744076|    0.627707|    3.628640|    1.950421|    0.198802|
|         179|           0|   -1.838809|    0.755457|    0.641116|    3.618697|    1.956721|    0.197898|
|         180|           0|   -1.845278|    0.768869|    0.657029|    3.608434|    1.960557|    0.196577|
+-----------------------------------------------------------------------+
|        File Writing Summary       |              Filename             |
+-----------------------------------------------------------------------+
|SU2 restart                        |solution_flow.dat                  |
|Paraview                           |flow.vtu                           |
|Paraview surface                   |surface_flow.vtu                   |
+-----------------------------------------------------------------------+

Writing the forces breakdown file (forces_breakdown.dat).
+-------------------------------------------------------------------------------------------------------+
|  Inner_Iter|   Time_Iter|    rms[Rho]|   rms[RhoU]|   rms[RhoV]|   rms[RhoE]|          CL|          CD|
+-------------------------------------------------------------------------------------------------------+
|         181|           0|   -1.851195|    0.782633|    0.673989|    3.597568|    1.961952|    0.194871|
|         182|           0|   -1.856537|    0.796226|    0.690780|    3.586341|    1.960941|    0.192810|
|         183|           0|   -1.861369|    0.808776|    0.706596|    3.574802|    1.957613|    0.190436|
|         184|           0|   -1.866335|    0.819580|    0.720841|    3.562457|    1.952055|    0.187785|
|         185|           0|   -1.870851|    0.828746|    0.732875|    3.550377|    1.944394|    0.184901|
|         186|           0|   -1.874485|    0.835650|    0.742507|    3.539338|    1.934783|    0.181830|
|         187|           0|   -1.877282|    0.840251|    0.749500|    3.529861|    1.923403|    0.178622|
|         188|           0|   -1.879404|    0.842406|    0.753816|    3.522157|    1.910431|    0.175321|
|         189|           0|   -1.881052|    0.841820|    0.755234|    3.516282|    1.896077|    0.171975|
|         190|           0|   -1.882107|    0.838494|    0.753815|    3.512624|    1.880554|    0.168633|
+-----------------------------------------------------------------------+
|        File Writing Summary       |              Filename             |
+-----------------------------------------------------------------------+
|SU2 restart                        |solution_flow.dat                  |
|Paraview                           |flow.vtu                           |
|Paraview surface                   |surface_flow.vtu                   |
+-----------------------------------------------------------------------+

Writing the forces breakdown file (forces_breakdown.dat).
+-------------------------------------------------------------------------------------------------------+
|  Inner_Iter|   Time_Iter|    rms[Rho]|   rms[RhoU]|   rms[RhoV]|   rms[RhoE]|          CL|          CD|
+-------------------------------------------------------------------------------------------------------+
|         191|           0|   -1.882900|    0.832276|    0.749452|    3.510888|    1.864091|    0.165340|
|         192|           0|   -1.883722|    0.823450|    0.742208|    3.510796|    1.846911|    0.162139|
|         193|           0|   -1.884731|    0.811906|    0.731781|    3.511986|    1.829264|    0.159079|
|         194|           0|   -1.886048|    0.797525|    0.718382|    3.514127|    1.811375|    0.156194|
|         195|           0|   -1.887877|    0.780203|    0.702015|    3.516724|    1.793481|    0.153525|
|         196|           0|   -1.890536|    0.760050|    0.682745|    3.519225|    1.775803|    0.151101|
|         197|           0|   -1.893427|    0.737211|    0.660691|    3.522181|    1.758559|    0.148951|
|         198|           0|   -1.896890|    0.712015|    0.636035|    3.524900|    1.741941|    0.147093|
|         199|           0|   -1.900999|    0.684761|    0.609224|    3.527095|    1.726136|    0.145544|
|         200|           0|   -1.905911|    0.655913|    0.580888|    3.528299|    1.711316|    0.144317|
+-----------------------------------------------------------------------+
|        File Writing Summary       |              Filename             |
+-----------------------------------------------------------------------+
|SU2 restart                        |solution_flow.dat                  |
|Paraview                           |flow.vtu                           |
|Paraview surface                   |surface_flow.vtu                   |
+-----------------------------------------------------------------------+

Writing the forces breakdown file (forces_breakdown.dat).
+-------------------------------------------------------------------------------------------------------+
|  Inner_Iter|   Time_Iter|    rms[Rho]|   rms[RhoU]|   rms[RhoV]|   rms[RhoE]|          CL|          CD|
+-------------------------------------------------------------------------------------------------------+
|         201|           0|   -1.911537|    0.626205|    0.552059|    3.528456|    1.697631|    0.143421|
|         202|           0|   -1.917775|    0.596561|    0.524211|    3.527485|    1.685225|    0.142858|
|         203|           0|   -1.924543|    0.569098|    0.499005|    3.525397|    1.674230|    0.142630|
|         204|           0|   -1.932186|    0.545705|    0.478522|    3.521654|    1.664758|    0.142734|
|         205|           0|   -1.940396|    0.528323|    0.464744|    3.516486|    1.656897|    0.143161|
|         206|           0|   -1.949099|    0.518345|    0.459068|    3.509879|    1.650721|    0.143901|
|         207|           0|   -1.957779|    0.516161|    0.461664|    3.502235|    1.646274|    0.144937|
|         208|           0|   -1.966338|    0.521364|    0.471320|    3.493522|    1.643587|    0.146252|
|         209|           0|   -1.974966|    0.532326|    0.486158|    3.483434|    1.642666|    0.147823|
|         210|           0|   -1.983336|    0.547362|    0.504129|    3.472305|    1.643501|    0.149626|
+-----------------------------------------------------------------------+
|        File Writing Summary       |              Filename             |
+-----------------------------------------------------------------------+
|SU2 restart                        |solution_flow.dat                  |
|Paraview                           |flow.vtu                           |
|Paraview surface                   |surface_flow.vtu                   |
+-----------------------------------------------------------------------+

Writing the forces breakdown file (forces_breakdown.dat).
+-------------------------------------------------------------------------------------------------------+
|  Inner_Iter|   Time_Iter|    rms[Rho]|   rms[RhoU]|   rms[RhoV]|   rms[RhoE]|          CL|          CD|
+-------------------------------------------------------------------------------------------------------+
|         211|           0|   -1.991282|    0.564381|    0.523276|    3.460382|    1.646060|    0.151632|
|         212|           0|   -1.999183|    0.580788|    0.541993|    3.447250|    1.650292|    0.153814|
|         213|           0|   -2.005837|    0.596623|    0.559361|    3.434374|    1.656129|    0.156139|
|         214|           0|   -2.011107|    0.611125|    0.574749|    3.422188|    1.663485|    0.158574|
|         215|           0|   -2.015025|    0.623688|    0.587736|    3.411094|    1.672257|    0.161086|
|         216|           0|   -2.017767|    0.634032|    0.598078|    3.401271|    1.682326|    0.163640|
|         217|           0|   -2.019587|    0.641989|    0.605661|    3.392854|    1.693563|    0.166203|
|         218|           0|   -2.020811|    0.647583|    0.610442|    3.385935|    1.705826|    0.168739|
|         219|           0|   -2.021517|    0.650661|    0.612358|    3.380742|    1.718960|    0.171216|
|         220|           0|   -2.022015|    0.651003|    0.611561|    3.377155|    1.732801|    0.173599|
+-----------------------------------------------------------------------+
|        File Writing Summary       |              Filename             |
+-----------------------------------------------------------------------+
|SU2 restart                        |solution_flow.dat                  |
|Paraview                           |flow.vtu                           |
|Paraview surface                   |surface_flow.vtu                   |
+-----------------------------------------------------------------------+

Writing the forces breakdown file (forces_breakdown.dat).
+-------------------------------------------------------------------------------------------------------+
|  Inner_Iter|   Time_Iter|    rms[Rho]|   rms[RhoU]|   rms[RhoV]|   rms[RhoE]|          CL|          CD|
+-------------------------------------------------------------------------------------------------------+
|         221|           0|   -2.022651|    0.648688|    0.608015|    3.374846|    1.747186|    0.175860|
|         222|           0|   -2.023386|    0.643598|    0.601708|    3.373875|    1.761941|    0.177968|
|         223|           0|   -2.024145|    0.635699|    0.592589|    3.374366|    1.776893|    0.179898|
|         224|           0|   -2.025145|    0.625017|    0.580511|    3.375981|    1.791865|    0.181624|
|         225|           0|   -2.026747|    0.611813|    0.565705|    3.378053|    1.806686|    0.183125|
|         226|           0|   -2.029160|    0.596301|    0.548287|    3.380111|    1.821183|    0.184384|
|         227|           0|   -2.032504|    0.578617|    0.528365|    3.381806|    1.835193|    0.185383|
|         228|           0|   -2.036769|    0.558951|    0.506147|    3.382921|    1.848566|    0.186114|
|         229|           0|   -2.042010|    0.537752|    0.481992|    3.383244|    1.861155|    0.186566|
|         230|           0|   -2.048255|    0.515632|    0.456246|    3.382589|    1.872820|    0.186735|
+-----------------------------------------------------------------------+
|        File Writing Summary       |              Filename             |
+-----------------------------------------------------------------------+
|SU2 restart                        |solution_flow.dat                  |
|Paraview                           |flow.vtu                           |
|Paraview surface                   |surface_flow.vtu                   |
+-----------------------------------------------------------------------+

Writing the forces breakdown file (forces_breakdown.dat).
+-------------------------------------------------------------------------------------------------------+
|  Inner_Iter|   Time_Iter|    rms[Rho]|   rms[RhoU]|   rms[RhoV]|   rms[RhoE]|          CL|          CD|
+-------------------------------------------------------------------------------------------------------+
|         231|           0|   -2.055444|    0.493412|    0.429625|    3.380847|    1.883444|    0.186622|
|         232|           0|   -2.063594|    0.472184|    0.403139|    3.377866|    1.892919|    0.186227|
|         233|           0|   -2.072491|    0.452841|    0.378182|    3.373731|    1.901147|    0.185557|
|         234|           0|   -2.082209|    0.436591|    0.356289|    3.368172|    1.908051|    0.184620|
|         235|           0|   -2.092634|    0.424552|    0.339029|    3.361240|    1.913574|    0.183430|
|         236|           0|   -2.103250|    0.417572|    0.327606|    3.353326|    1.917671|    0.182001|
|         237|           0|   -2.114071|    0.415962|    0.322735|    3.344266|    1.920327|    0.180354|
|         238|           0|   -2.124734|    0.419493|    0.324321|    3.334275|    1.921536|    0.178510|
|         239|           0|   -2.134936|    0.427464|    0.331548|    3.323617|    1.921313|    0.176494|
|         240|           0|   -2.144955|    0.438761|    0.343004|    3.311938|    1.919689|    0.174331|
+-----------------------------------------------------------------------+
|        File Writing Summary       |              Filename             |
+-----------------------------------------------------------------------+
|SU2 restart                        |solution_flow.dat                  |
|Paraview                           |flow.vtu                           |
|Paraview surface                   |surface_flow.vtu                   |
+-----------------------------------------------------------------------+

Writing the forces breakdown file (forces_breakdown.dat).
+-------------------------------------------------------------------------------------------------------+
|  Inner_Iter|   Time_Iter|    rms[Rho]|   rms[RhoU]|   rms[RhoV]|   rms[RhoE]|          CL|          CD|
+-------------------------------------------------------------------------------------------------------+
|         241|           0|   -2.154510|    0.451908|    0.357075|    3.299450|    1.916714|    0.172049|
|         242|           0|   -2.163419|    0.465633|    0.372355|    3.286392|    1.912451|    0.169676|
|         243|           0|   -2.171419|    0.479034|    0.387645|    3.273123|    1.906981|    0.167242|
|         244|           0|   -2.178863|    0.491267|    0.402073|    3.259357|    1.900391|    0.164776|
|         245|           0|   -2.184907|    0.502196|    0.415021|    3.246293|    1.892786|    0.162308|
|         246|           0|   -2.189585|    0.511263|    0.426065|    3.234223|    1.884278|    0.159869|
|         247|           0|   -2.193050|    0.518309|    0.434880|    3.223429|    1.874992|    0.157486|
|         248|           0|   -2.195589|    0.523039|    0.441298|    3.214003|    1.865060|    0.155189|
|         249|           0|   -2.197254|    0.525391|    0.445112|    3.206336|    1.854617|    0.153004|
|         250|           0|   -2.198419|    0.525464|    0.446269|    3.200364|    1.843801|    0.150957|
+-----------------------------------------------------------------------+
|        File Writing Summary       |              Filename             |
+-----------------------------------------------------------------------+
|SU2 restart                        |solution_flow.dat                  |
|Paraview                           |flow.vtu                           |
|Paraview surface                   |surface_flow.vtu                   |
+-----------------------------------------------------------------------+

Writing the forces breakdown file (forces_breakdown.dat).
+-------------------------------------------------------------------------------------------------------+
|  Inner_Iter|   Time_Iter|    rms[Rho]|   rms[RhoU]|   rms[RhoV]|   rms[RhoE]|          CL|          CD|
+-------------------------------------------------------------------------------------------------------+
|         251|           0|   -2.199591|    0.523167|    0.444711|    3.195798|    1.832756|    0.149070|
|         252|           0|   -2.201010|    0.518370|    0.440490|    3.192519|    1.821621|    0.147365|
|         253|           0|   -2.202043|    0.511040|    0.433571|    3.191187|    1.810535|    0.145860|
|         254|           0|   -2.203054|    0.501172|    0.423954|    3.191319|    1.799638|    0.144571|
|         255|           0|   -2.204462|    0.488754|    0.411644|    3.192266|    1.789062|    0.143512|
|         256|           0|   -2.206364|    0.473894|    0.396674|    3.193803|    1.778930|    0.142692|
|         257|           0|   -2.208862|    0.456595|    0.379093|    3.195630|    1.769363|    0.142119|
|         258|           0|   -2.211930|    0.436967|    0.359077|    3.197573|    1.760470|    0.141798|
|         259|           0|   -2.215797|    0.415244|    0.336665|    3.199152|    1.752356|    0.141732|
|         260|           0|   -2.220572|    0.391636|    0.312129|    3.200041|    1.745105|    0.141916|
+-----------------------------------------------------------------------+
|        File Writing Summary       |              Filename             |
+-----------------------------------------------------------------------+
|SU2 restart                        |solution_flow.dat                  |
|Paraview                           |flow.vtu                           |
|Paraview surface                   |surface_flow.vtu                   |
+-----------------------------------------------------------------------+

Writing the forces breakdown file (forces_breakdown.dat).
+-------------------------------------------------------------------------------------------------------+
|  Inner_Iter|   Time_Iter|    rms[Rho]|   rms[RhoU]|   rms[RhoV]|   rms[RhoE]|          CL|          CD|
+-------------------------------------------------------------------------------------------------------+
|         261|           0|   -2.226254|    0.366563|    0.285939|    3.200096|    1.738798|    0.142348|
|         262|           0|   -2.232857|    0.340538|    0.258668|    3.199144|    1.733502|    0.143021|
|         263|           0|   -2.240227|    0.314215|    0.231243|    3.197199|    1.729270|    0.143926|
|         264|           0|   -2.248374|    0.288661|    0.204890|    3.194098|    1.726137|    0.145049|
|         265|           0|   -2.257148|    0.265061|    0.181210|    3.189872|    1.724133|    0.146376|
|         266|           0|   -2.266539|    0.244738|    0.161858|    3.184370|    1.723268|    0.147890|
|         267|           0|   -2.276329|    0.228895|    0.148289|    3.177706|    1.723543|    0.149572|
|         268|           0|   -2.286931|    0.217689|    0.141448|    3.169251|    1.724943|    0.151402|
|         269|           0|   -2.297268|    0.212102|    0.141426|    3.160014|    1.727444|    0.153359|
|         270|           0|   -2.307082|    0.212110|    0.147448|    3.150167|    1.731006|    0.155419|
+-----------------------------------------------------------------------+
|        File Writing Summary       |              Filename             |
+-----------------------------------------------------------------------+
|SU2 restart                        |solution_flow.dat                  |
|Paraview                           |flow.vtu                           |
|Paraview surface                   |surface_flow.vtu                   |
+-----------------------------------------------------------------------+

Writing the forces breakdown file (forces_breakdown.dat).
+-------------------------------------------------------------------------------------------------------+
|  Inner_Iter|   Time_Iter|    rms[Rho]|   rms[RhoU]|   rms[RhoV]|   rms[RhoE]|          CL|          CD|
+-------------------------------------------------------------------------------------------------------+
|         271|           0|   -2.316425|    0.216726|    0.158036|    3.139573|    1.735579|    0.157558|
|         272|           0|   -2.324919|    0.225060|    0.171735|    3.128655|    1.741100|    0.159752|
|         273|           0|   -2.332377|    0.235883|    0.187043|    3.117611|    1.747501|    0.161977|
|         274|           0|   -2.338695|    0.248091|    0.202710|    3.106707|    1.754697|    0.164205|
|         275|           0|   -2.343707|    0.260562|    0.217727|    3.096360|    1.762602|    0.166412|
|         276|           0|   -2.347687|    0.272378|    0.231467|    3.086513|    1.771118|    0.168574|
|         277|           0|   -2.350662|    0.282572|    0.243311|    3.077397|    1.780147|    0.170668|
|         278|           0|   -2.352964|    0.291063|    0.253027|    3.069018|    1.789582|    0.172670|
|         279|           0|   -2.354440|    0.297675|    0.260500|    3.061881|    1.799312|    0.174558|
|         280|           0|   -2.355296|    0.302241|    0.265550|    3.056088|    1.809228|    0.176312|
+-----------------------------------------------------------------------+
|        File Writing Summary       |              Filename             |
+-----------------------------------------------------------------------+
|SU2 restart                        |solution_flow.dat                  |
|Paraview                           |flow.vtu                           |
|Paraview surface                   |surface_flow.vtu                   |
+-----------------------------------------------------------------------+

Writing the forces breakdown file (forces_breakdown.dat).
+-------------------------------------------------------------------------------------------------------+
|  Inner_Iter|   Time_Iter|    rms[Rho]|   rms[RhoU]|   rms[RhoV]|   rms[RhoE]|          CL|          CD|
+-------------------------------------------------------------------------------------------------------+
|         281|           0|   -2.355831|    0.304660|    0.268193|    3.051548|    1.819218|    0.177913|
|         282|           0|   -2.356275|    0.304794|    0.268415|    3.048170|    1.829167|    0.179344|
|         283|           0|   -2.356825|    0.302693|    0.266219|    3.045835|    1.838972|    0.180590|
|         284|           0|   -2.357642|    0.298359|    0.261633|    3.044389|    1.848523|    0.181639|
|         285|           0|   -2.358891|    0.291756|    0.254738|    3.043607|    1.857723|    0.182481|
|         286|           0|   -2.360826|    0.283023|    0.245605|    3.043103|    1.866475|    0.183107|
|         287|           0|   -2.363508|    0.272225|    0.234270|    3.042718|    1.874692|    0.183514|
|         288|           0|   -2.367106|    0.259491|    0.220908|    3.042216|    1.882293|    0.183696|
|         289|           0|   -2.371594|    0.245050|    0.205651|    3.041481|    1.889203|    0.183655|
|         290|           0|   -2.377053|    0.229267|    0.188807|    3.040244|    1.895357|    0.183392|
+-----------------------------------------------------------------------+
|        File Writing Summary       |              Filename             |
+-----------------------------------------------------------------------+
|SU2 restart                        |solution_flow.dat                  |
|Paraview                           |flow.vtu                           |
|Paraview surface                   |surface_flow.vtu                   |
+-----------------------------------------------------------------------+

Writing the forces breakdown file (forces_breakdown.dat).
+-------------------------------------------------------------------------------------------------------+
|  Inner_Iter|   Time_Iter|    rms[Rho]|   rms[RhoU]|   rms[RhoV]|   rms[RhoE]|          CL|          CD|
+-------------------------------------------------------------------------------------------------------+
|         291|           0|   -2.383431|    0.212528|    0.170736|    3.038424|    1.900702|    0.182913|
|         292|           0|   -2.390798|    0.195241|    0.151799|    3.035806|    1.905194|    0.182224|
|         293|           0|   -2.399066|    0.177973|    0.132573|    3.032349|    1.908803|    0.181335|
|         294|           0|   -2.408166|    0.161380|    0.113767|    3.027991|    1.911505|    0.180259|
|         295|           0|   -2.418153|    0.146280|    0.096186|    3.022533|    1.913293|    0.179009|
|         296|           0|   -2.428855|    0.133343|    0.080648|    3.016045|    1.914164|    0.177601|
|         297|           0|   -2.440070|    0.123197|    0.067921|    3.008569|    1.914134|    0.176052|
|         298|           0|   -2.451542|    0.116254|    0.058627|    3.000233|    1.913219|    0.174380|
|         299|           0|   -2.463243|    0.112687|    0.053074|    2.990910|    1.911455|    0.172607|
|         300|           0|   -2.475159|    0.112228|    0.051302|    2.980375|    1.908878|    0.170752|
+-----------------------------------------------------------------------+
|        File Writing Summary       |              Filename             |
+-----------------------------------------------------------------------+
|SU2 restart                        |solution_flow.dat                  |
|Paraview                           |flow.vtu                           |
|Paraview surface                   |surface_flow.vtu                   |
+-----------------------------------------------------------------------+

Writing the forces breakdown file (forces_breakdown.dat).
+-------------------------------------------------------------------------------------------------------+
|  Inner_Iter|   Time_Iter|    rms[Rho]|   rms[RhoU]|   rms[RhoV]|   rms[RhoE]|          CL|          CD|
+-------------------------------------------------------------------------------------------------------+
|         301|           0|   -2.486770|    0.114863|    0.052953|    2.969200|    1.905541|    0.168838|
|         302|           0|   -2.497966|    0.119978|    0.057431|    2.957371|    1.901500|    0.166885|
|         303|           0|   -2.508483|    0.126907|    0.063990|    2.945107|    1.896825|    0.164919|
|         304|           0|   -2.518255|    0.134938|    0.071838|    2.932472|    1.891584|    0.162960|
|         305|           0|   -2.526913|    0.143461|    0.080232|    2.919932|    1.885856|    0.161031|
|         306|           0|   -2.534446|    0.151843|    0.088520|    2.907573|    1.879722|    0.159152|
|         307|           0|   -2.540982|    0.159574|    0.096156|    2.895435|    1.873266|    0.157346|
|         308|           0|   -2.546527|    0.166236|    0.102733|    2.883739|    1.866575|    0.155630|
|         309|           0|   -2.551013|    0.171632|    0.107990|    2.872916|    1.859738|    0.154025|
|         310|           0|   -2.554576|    0.175478|    0.111683|    2.863169|    1.852844|    0.152546|
+-----------------------------------------------------------------------+
|        File Writing Summary       |              Filename             |
+-----------------------------------------------------------------------+
|SU2 restart                        |solution_flow.dat                  |
|Paraview                           |flow.vtu                           |
|Paraview surface                   |surface_flow.vtu                   |
+-----------------------------------------------------------------------+

Writing the forces breakdown file (forces_breakdown.dat).
+-------------------------------------------------------------------------------------------------------+
|  Inner_Iter|   Time_Iter|    rms[Rho]|   rms[RhoU]|   rms[RhoV]|   rms[RhoE]|          CL|          CD|
+-------------------------------------------------------------------------------------------------------+
|         311|           0|   -2.557379|    0.177580|    0.113625|    2.854621|    1.845980|    0.151209|
|         312|           0|   -2.559612|    0.177881|    0.113600|    2.847377|    1.839230|    0.150027|
|         313|           0|   -2.561514|    0.176247|    0.111556|    2.841388|    1.832676|    0.149012|
|         314|           0|   -2.563357|    0.172670|    0.107453|    2.836521|    1.826397|    0.148173|
|         315|           0|   -2.565298|    0.167119|    0.101291|    2.832733|    1.820466|    0.147518|
|         316|           0|   -2.567511|    0.159544|    0.093050|    2.829858|    1.814954|    0.147053|
|         317|           0|   -2.570137|    0.149943|    0.082722|    2.827724|    1.809919|    0.146779|
|         318|           0|   -2.573281|    0.138331|    0.070360|    2.826153|    1.805416|    0.146697|
|         319|           0|   -2.577020|    0.124742|    0.056039|    2.824936|    1.801493|    0.146806|
|         320|           0|   -2.581386|    0.109260|    0.039869|    2.823908|    1.798189|    0.147102|
+-----------------------------------------------------------------------+
|        File Writing Summary       |              Filename             |
+-----------------------------------------------------------------------+
|SU2 restart                        |solution_flow.dat                  |
|Paraview                           |flow.vtu                           |
|Paraview surface                   |surface_flow.vtu                   |
+-----------------------------------------------------------------------+

Writing the forces breakdown file (forces_breakdown.dat).
+-------------------------------------------------------------------------------------------------------+
|  Inner_Iter|   Time_Iter|    rms[Rho]|   rms[RhoU]|   rms[RhoV]|   rms[RhoE]|          CL|          CD|
+-------------------------------------------------------------------------------------------------------+
|         321|           0|   -2.586424|    0.091977|    0.021944|    2.822866|    1.795535|    0.147580|
|         322|           0|   -2.592167|    0.073106|    0.002483|    2.821620|    1.793556|    0.148231|
|         323|           0|   -2.598615|    0.052872|   -0.018137|    2.820020|    1.792266|    0.149046|
|         324|           0|   -2.605760|    0.031522|   -0.039477|    2.817885|    1.791672|    0.150014|
|         325|           0|   -2.613654|    0.009474|   -0.060965|    2.815010|    1.791773|    0.151123|
|         326|           0|   -2.622299|   -0.012797|   -0.081901|    2.811256|    1.792561|    0.152358|
|         327|           0|   -2.631589|   -0.034730|   -0.101504|    2.806591|    1.794018|    0.153704|
|         328|           0|   -2.641342|   -0.055703|   -0.118914|    2.801070|    1.796120|    0.155145|
|         329|           0|   -2.651378|   -0.074997|   -0.133275|    2.794716|    1.798834|    0.156665|
|         330|           0|   -2.661517|   -0.091867|   -0.143910|    2.787575|    1.802124|    0.158245|
+-----------------------------------------------------------------------+
|        File Writing Summary       |              Filename             |
+-----------------------------------------------------------------------+
|SU2 restart                        |solution_flow.dat                  |
|Paraview                           |flow.vtu                           |
|Paraview surface                   |surface_flow.vtu                   |
+-----------------------------------------------------------------------+

Writing the forces breakdown file (forces_breakdown.dat).
+-------------------------------------------------------------------------------------------------------+
|  Inner_Iter|   Time_Iter|    rms[Rho]|   rms[RhoU]|   rms[RhoV]|   rms[RhoE]|          CL|          CD|
+-------------------------------------------------------------------------------------------------------+
|         331|           0|   -2.671607|   -0.105719|   -0.150413|    2.779685|    1.805946|    0.159868|
|         332|           0|   -2.681399|   -0.116117|   -0.152754|    2.771225|    1.810251|    0.161516|
|         333|           0|   -2.690698|   -0.122943|   -0.151233|    2.762281|    1.814986|    0.163170|
|         334|           0|   -2.699245|   -0.126310|   -0.146508|    2.753091|    1.820096|    0.164813|
|         335|           0|   -2.707030|   -0.126359|   -0.139364|    2.743696|    1.825521|    0.166428|
|         336|           0|   -2.714010|   -0.123693|   -0.130675|    2.734172|    1.831200|    0.167997|
|         337|           0|   -2.719993|   -0.119061|   -0.121226|    2.724821|    1.837068|    0.169504|
|         338|           0|   -2.724988|   -0.113190|   -0.111746|    2.715798|    1.843062|    0.170934|
|         339|           0|   -2.729265|   -0.106957|   -0.102801|    2.706974|    1.849116|    0.172273|
|         340|           0|   -2.732794|   -0.100898|   -0.094776|    2.698606|    1.855167|    0.173508|
+-----------------------------------------------------------------------+
|        File Writing Summary       |              Filename             |
+-----------------------------------------------------------------------+
|SU2 restart                        |solution_flow.dat                  |
|Paraview                           |flow.vtu                           |
|Paraview surface                   |surface_flow.vtu                   |
+-----------------------------------------------------------------------+

Writing the forces breakdown file (forces_breakdown.dat).
+-------------------------------------------------------------------------------------------------------+
|  Inner_Iter|   Time_Iter|    rms[Rho]|   rms[RhoU]|   rms[RhoV]|   rms[RhoE]|          CL|          CD|
+-------------------------------------------------------------------------------------------------------+
|         341|           0|   -2.735702|   -0.095434|   -0.087949|    2.690798|    1.861152|    0.174628|
|         342|           0|   -2.738149|   -0.090914|   -0.082518|    2.683627|    1.867011|    0.175622|
|         343|           0|   -2.740317|   -0.087560|   -0.078605|    2.677128|    1.872686|    0.176482|
|         344|           0|   -2.742320|   -0.085554|   -0.076273|    2.671395|    1.878122|    0.177202|
|         345|           0|   -2.744349|   -0.085007|   -0.075557|    2.666363|    1.883267|    0.177775|
|         346|           0|   -2.746709|   -0.085894|   -0.076408|    2.661791|    1.888075|    0.178198|
|         347|           0|   -2.749553|   -0.088260|   -0.078818|    2.657571|    1.892505|    0.178468|
|         348|           0|   -2.752971|   -0.092107|   -0.082703|    2.653636|    1.896520|    0.178587|
|         349|           0|   -2.757017|   -0.097392|   -0.087960|    2.649915|    1.900087|    0.178554|
|         350|           0|   -2.761834|   -0.104018|   -0.094455|    2.646211|    1.903182|    0.178373|
+-----------------------------------------------------------------------+
[...]
|         905|           0|   -4.311878|   -1.345656|   -1.718617|    1.252613|    1.938628|    0.167761|
|         906|           0|   -4.307026|   -1.267605|   -1.688132|    1.274280|    1.938638|    0.167763|
|         907|           0|   -4.338695|   -1.241802|   -1.675328|    1.251879|    1.938649|    0.167765|
|         908|           0|   -4.392989|   -1.257461|   -1.684107|    1.192359|    1.938660|    0.167768|
|         909|           0|   -4.445086|   -1.308690|   -1.713017|    1.106575|    1.938672|    0.167771|
|         910|           0|   -4.464656|   -1.394950|   -1.754970|    1.020344|    1.938685|    0.167774|
+-----------------------------------------------------------------------+
|        File Writing Summary       |              Filename             |
+-----------------------------------------------------------------------+
|SU2 restart                        |solution_flow.dat                  |
|Paraview                           |flow.vtu                           |
|Paraview surface                   |surface_flow.vtu                   |
+-----------------------------------------------------------------------+

Writing the forces breakdown file (forces_breakdown.dat).
+-------------------------------------------------------------------------------------------------------+
|  Inner_Iter|   Time_Iter|    rms[Rho]|   rms[RhoU]|   rms[RhoV]|   rms[RhoE]|          CL|          CD|
+-------------------------------------------------------------------------------------------------------+
|         911|           0|   -4.439036|   -1.523154|   -1.795601|    0.989235|    1.938699|    0.167777|
|         912|           0|   -4.382957|   -1.705109|   -1.816750|    1.045582|    1.938713|    0.167780|
|         913|           0|   -4.314855|   -1.836367|   -1.808312|    1.147090|    1.938728|    0.167784|
|         914|           0|   -4.240851|   -1.622557|   -1.772076|    1.258297|    1.938743|    0.167788|
|         915|           0|   -4.159047|   -1.361853|   -1.711750|    1.372404|    1.938759|    0.167791|
|         916|           0|   -4.070229|   -1.151997|   -1.630779|    1.486866|    1.938775|    0.167794|
|         917|           0|   -4.210231|   -1.206279|   -1.656816|    1.362660|    1.938792|    0.167798|
|         918|           0|   -4.378048|   -1.312767|   -1.708263|    1.189867|    1.938810|    0.167801|
|         919|           0|   -4.463073|   -1.416231|   -1.751960|    1.056155|    1.938827|    0.167805|
|         920|           0|   -4.473921|   -1.514271|   -1.785397|    0.988500|    1.938844|    0.167808|
+-----------------------------------------------------------------------+
|        File Writing Summary       |              Filename             |
+-----------------------------------------------------------------------+
|SU2 restart                        |solution_flow.dat                  |
|Paraview                           |flow.vtu                           |
|Paraview surface                   |surface_flow.vtu                   |
+-----------------------------------------------------------------------+

Writing the forces breakdown file (forces_breakdown.dat).
+-------------------------------------------------------------------------------------------------------+
|  Inner_Iter|   Time_Iter|    rms[Rho]|   rms[RhoU]|   rms[RhoV]|   rms[RhoE]|          CL|          CD|
+-------------------------------------------------------------------------------------------------------+
|         921|           0|   -4.469132|   -1.604911|   -1.810102|    0.964471|    1.938862|    0.167811|
|         922|           0|   -4.477951|   -1.684991|   -1.827807|    0.946439|    1.938880|    0.167814|
|         923|           0|   -4.503181|   -1.750012|   -1.839859|    0.920297|    1.938899|    0.167817|
|         924|           0|   -4.543148|   -1.797371|   -1.848075|    0.882847|    1.938917|    0.167820|
|         925|           0|   -4.594440|   -1.828798|   -1.854281|    0.836161|    1.938934|    0.167822|
|         926|           0|   -4.578785|   -1.951712|   -1.860854|    0.871487|    1.938951|    0.167824|
|         927|           0|   -4.467190|   -1.824695|   -1.853765|    1.030604|    1.938968|    0.167826|
|         928|           0|   -4.374399|   -1.546643|   -1.820682|    1.160661|    1.938984|    0.167827|
|         929|           0|   -4.318834|   -1.375972|   -1.772940|    1.241852|    1.939001|    0.167828|
|         930|           0|   -4.305061|   -1.282978|   -1.731318|    1.273827|    1.939016|    0.167829|
+-----------------------------------------------------------------------+
|        File Writing Summary       |              Filename             |
+-----------------------------------------------------------------------+
|SU2 restart                        |solution_flow.dat                  |
|Paraview                           |flow.vtu                           |
|Paraview surface                   |surface_flow.vtu                   |
+-----------------------------------------------------------------------+

Writing the forces breakdown file (forces_breakdown.dat).
+-------------------------------------------------------------------------------------------------------+
|  Inner_Iter|   Time_Iter|    rms[Rho]|   rms[RhoU]|   rms[RhoV]|   rms[RhoE]|          CL|          CD|
+-------------------------------------------------------------------------------------------------------+
|         931|           0|   -4.329855|   -1.246430|   -1.709714|    1.260472|    1.939031|    0.167830|
|         932|           0|   -4.381548|   -1.253818|   -1.713045|    1.208200|    1.939046|    0.167830|
|         933|           0|   -4.437820|   -1.298081|   -1.740628|    1.126476|    1.939060|    0.167831|
|         934|           0|   -4.467800|   -1.377716|   -1.786597|    1.035900|    1.939073|    0.167831|
|         935|           0|   -4.451831|   -1.498723|   -1.836722|    0.986613|    1.939086|    0.167830|
|         936|           0|   -4.400176|   -1.677133|   -1.868360|    1.025499|    1.939097|    0.167829|
|         937|           0|   -4.333127|   -1.866972|   -1.864182|    1.121847|    1.939109|    0.167829|
|         938|           0|   -4.259689|   -1.697121|   -1.825064|    1.232699|    1.939119|    0.167828|
|         939|           0|   -4.178984|   -1.416885|   -1.758974|    1.346804|    1.939129|    0.167827|
|         940|           0|   -4.090315|   -1.194073|   -1.671804|    1.462373|    1.939138|    0.167825|
+-----------------------------------------------------------------------+
|        File Writing Summary       |              Filename             |
+-----------------------------------------------------------------------+
|SU2 restart                        |solution_flow.dat                  |
|Paraview                           |flow.vtu                           |
|Paraview surface                   |surface_flow.vtu                   |
+-----------------------------------------------------------------------+

Writing the forces breakdown file (forces_breakdown.dat).
+-------------------------------------------------------------------------------------------------------+
|  Inner_Iter|   Time_Iter|    rms[Rho]|   rms[RhoU]|   rms[RhoV]|   rms[RhoE]|          CL|          CD|
+-------------------------------------------------------------------------------------------------------+
|         941|           0|   -4.165081|   -1.180884|   -1.666756|    1.405627|    1.939147|    0.167823|
|         942|           0|   -4.346345|   -1.288235|   -1.724010|    1.228084|    1.939154|    0.167822|
|         943|           0|   -4.455105|   -1.393628|   -1.776501|    1.080504|    1.939162|    0.167820|
|         944|           0|   -4.477401|   -1.494564|   -1.818513|    0.997002|    1.939168|    0.167818|
|         945|           0|   -4.471337|   -1.589128|   -1.850353|    0.966823|    1.939174|    0.167816|
|         946|           0|   -4.474854|   -1.674566|   -1.873536|    0.950642|    1.939180|    0.167814|
|         947|           0|   -4.496058|   -1.746218|   -1.889272|    0.927044|    1.939185|    0.167812|
|         948|           0|   -4.532694|   -1.800195|   -1.899451|    0.892205|    1.939190|    0.167810|
|         949|           0|   -4.581834|   -1.836745|   -1.906405|    0.847012|    1.939194|    0.167808|
|         950|           0|   -4.606117|   -1.917207|   -1.913128|    0.833582|    1.939197|    0.167806|
+-----------------------------------------------------------------------+
|        File Writing Summary       |              Filename             |
+-----------------------------------------------------------------------+
|SU2 restart                        |solution_flow.dat                  |
|Paraview                           |flow.vtu                           |
|Paraview surface                   |surface_flow.vtu                   |
+-----------------------------------------------------------------------+

Writing the forces breakdown file (forces_breakdown.dat).
+-------------------------------------------------------------------------------------------------------+
|  Inner_Iter|   Time_Iter|    rms[Rho]|   rms[RhoU]|   rms[RhoV]|   rms[RhoE]|          CL|          CD|
+-------------------------------------------------------------------------------------------------------+
|         951|           0|   -4.494536|   -1.923312|   -1.909296|    0.991440|    1.939201|    0.167804|
|         952|           0|   -4.393985|   -1.610175|   -1.873740|    1.133025|    1.939204|    0.167802|
|         953|           0|   -4.328130|   -1.411363|   -1.817094|    1.227102|    1.939207|    0.167800|
|         954|           0|   -4.303819|   -1.300331|   -1.764489|    1.271342|    1.939210|    0.167798|
|         955|           0|   -4.319814|   -1.250663|   -1.733121|    1.268843|    1.939213|    0.167797|
|         956|           0|   -4.366859|   -1.247797|   -1.729241|    1.225394|    1.939216|    0.167795|
|         957|           0|   -4.425492|   -1.283238|   -1.753084|    1.149340|    1.939219|    0.167794|
|         958|           0|   -4.465619|   -1.353995|   -1.800611|    1.056795|    1.939222|    0.167793|
|         959|           0|   -4.461587|   -1.463987|   -1.859983|    0.989702|    1.939226|    0.167792|
|         960|           0|   -4.416514|   -1.627835|   -1.906959|    1.005950|    1.939229|    0.167791|
+-----------------------------------------------------------------------+
|        File Writing Summary       |              Filename             |
+-----------------------------------------------------------------------+
|SU2 restart                        |solution_flow.dat                  |
|Paraview                           |flow.vtu                           |
|Paraview surface                   |surface_flow.vtu                   |
+-----------------------------------------------------------------------+

Writing the forces breakdown file (forces_breakdown.dat).
+-------------------------------------------------------------------------------------------------------+
|  Inner_Iter|   Time_Iter|    rms[Rho]|   rms[RhoU]|   rms[RhoV]|   rms[RhoE]|          CL|          CD|
+-------------------------------------------------------------------------------------------------------+
|         961|           0|   -4.351583|   -1.843818|   -1.914506|    1.093628|    1.939233|    0.167791|
|         962|           0|   -4.279324|   -1.779321|   -1.877426|    1.203357|    1.939237|    0.167791|
|         963|           0|   -4.200582|   -1.485673|   -1.807836|    1.317041|    1.939242|    0.167791|
|         964|           0|   -4.113262|   -1.247377|   -1.716017|    1.433043|    1.939246|    0.167791|
|         965|           0|   -4.114991|   -1.153960|   -1.668842|    1.451570|    1.939251|    0.167791|
|         966|           0|   -4.304910|   -1.261673|   -1.730091|    1.271615|    1.939256|    0.167792|
|         967|           0|   -4.437997|   -1.368328|   -1.790797|    1.112028|    1.939262|    0.167793|
|         968|           0|   -4.478431|   -1.471351|   -1.841638|    1.010125|    1.939268|    0.167793|
|         969|           0|   -4.474682|   -1.568922|   -1.881319|    0.969453|    1.939274|    0.167794|
|         970|           0|   -4.474072|   -1.658850|   -1.910984|    0.952758|    1.939281|    0.167796|
+-----------------------------------------------------------------------+
|        File Writing Summary       |              Filename             |
+-----------------------------------------------------------------------+
|SU2 restart                        |solution_flow.dat                  |
|Paraview                           |flow.vtu                           |
|Paraview surface                   |surface_flow.vtu                   |
+-----------------------------------------------------------------------+

Writing the forces breakdown file (forces_breakdown.dat).
+-------------------------------------------------------------------------------------------------------+
|  Inner_Iter|   Time_Iter|    rms[Rho]|   rms[RhoU]|   rms[RhoV]|   rms[RhoE]|          CL|          CD|
+-------------------------------------------------------------------------------------------------------+
|         971|           0|   -4.491520|   -1.736913|   -1.931695|    0.930956|    1.939288|    0.167797|
|         972|           0|   -4.525390|   -1.798243|   -1.945117|    0.897844|    1.939295|    0.167798|
|         973|           0|   -4.573057|   -1.841351|   -1.953921|    0.853278|    1.939303|    0.167800|
|         974|           0|   -4.630739|   -1.869802|   -1.960731|    0.800431|    1.939311|    0.167801|
|         975|           0|   -4.528191|   -2.018777|   -1.963119|    0.944104|    1.939320|    0.167803|
|         976|           0|   -4.418850|   -1.688799|   -1.928630|    1.098820|    1.939328|    0.167805|
|         977|           0|   -4.341443|   -1.454673|   -1.864023|    1.207584|    1.939337|    0.167807|
|         978|           0|   -4.305149|   -1.322322|   -1.799496|    1.265642|    1.939347|    0.167809|
|         979|           0|   -4.310535|   -1.257645|   -1.756815|    1.275485|    1.939357|    0.167811|
|         980|           0|   -4.350547|   -1.243303|   -1.743897|    1.242401|    1.939366|    0.167813|
+-----------------------------------------------------------------------+
|        File Writing Summary       |              Filename             |
+-----------------------------------------------------------------------+
|SU2 restart                        |solution_flow.dat                  |
|Paraview                           |flow.vtu                           |
|Paraview surface                   |surface_flow.vtu                   |
+-----------------------------------------------------------------------+

Writing the forces breakdown file (forces_breakdown.dat).
+-------------------------------------------------------------------------------------------------------+
|  Inner_Iter|   Time_Iter|    rms[Rho]|   rms[RhoU]|   rms[RhoV]|   rms[RhoE]|          CL|          CD|
+-------------------------------------------------------------------------------------------------------+
|         981|           0|   -4.408495|   -1.269196|   -1.761666|    1.174088|    1.939376|    0.167814|
|         982|           0|   -4.456562|   -1.330820|   -1.807593|    1.083435|    1.939387|    0.167816|
|         983|           0|   -4.465415|   -1.430035|   -1.872840|    1.003352|    1.939397|    0.167818|
|         984|           0|   -4.429631|   -1.579051|   -1.934756|    0.994021|    1.939407|    0.167820|
|         985|           0|   -4.368660|   -1.796404|   -1.958054|    1.067316|    1.939417|    0.167822|
|         986|           0|   -4.298310|   -1.861740|   -1.926477|    1.173807|    1.939427|    0.167823|
|         987|           0|   -4.222072|   -1.566270|   -1.854934|    1.286325|    1.939438|    0.167825|
|         988|           0|   -4.137009|   -1.308198|   -1.759661|    1.401960|    1.939448|    0.167826|
|         989|           0|   -4.067702|   -1.128644|   -1.664548|    1.494593|    1.939458|    0.167827|
|         990|           0|   -4.261151|   -1.236711|   -1.727827|    1.314544|    1.939468|    0.167828|
+-----------------------------------------------------------------------+
|        File Writing Summary       |              Filename             |
+-----------------------------------------------------------------------+
|SU2 restart                        |solution_flow.dat                  |
|Paraview                           |flow.vtu                           |
|Paraview surface                   |surface_flow.vtu                   |
+-----------------------------------------------------------------------+

Writing the forces breakdown file (forces_breakdown.dat).
+-------------------------------------------------------------------------------------------------------+
|  Inner_Iter|   Time_Iter|    rms[Rho]|   rms[RhoU]|   rms[RhoV]|   rms[RhoE]|          CL|          CD|
+-------------------------------------------------------------------------------------------------------+
|         991|           0|   -4.412327|   -1.344653|   -1.795871|    1.147521|    1.939477|    0.167829|
|         992|           0|   -4.472468|   -1.449775|   -1.856100|    1.029908|    1.939486|    0.167830|
|         993|           0|   -4.473909|   -1.550277|   -1.905338|    0.977402|    1.939496|    0.167831|
|         994|           0|   -4.470721|   -1.644329|   -1.943908|    0.958324|    1.939505|    0.167831|
|         995|           0|   -4.483949|   -1.728188|   -1.972249|    0.938800|    1.939514|    0.167832|
|         996|           0|   -4.514366|   -1.796346|   -1.991185|    0.908377|    1.939522|    0.167832|
|         997|           0|   -4.559425|   -1.845648|   -2.003312|    0.866031|    1.939530|    0.167832|
|         998|           0|   -4.615295|   -1.878261|   -2.011810|    0.814765|    1.939538|    0.167832|
|         999|           0|   -4.553180|   -2.069542|   -2.017582|    0.908692|    1.939546|    0.167832|

----------------------------- Solver Exit -------------------------------

Maximum number of iterations reached (ITER = 1000) before convergence.
+-----------------------------------------------------------------------+
|      Convergence Field     |     Value    |   Criterion  |  Converged |
+-----------------------------------------------------------------------+
|                  Cauchy[CD]|   9.37461e-06|       < 1e-10|          No|
+-----------------------------------------------------------------------+
-------------------------------------------------------------------------
+-----------------------------------------------------------------------+
|        File Writing Summary       |              Filename             |
+-----------------------------------------------------------------------+
|SU2 restart                        |solution_flow.dat                  |
|Paraview                           |flow.vtu                           |
|Paraview surface                   |surface_flow.vtu                   |
+-----------------------------------------------------------------------+

Writing the forces breakdown file (forces_breakdown.dat).

------------------------- Solver Postprocessing -------------------------
Deleted CNumerics container.
Deleted CIntegration container.
Deleted CSolver container.
Deleted CIteration container.
Deleted CInterpolator container.
Deleted CInterface container.
Deleted CGeometry container.
Deleted CFreeFormDefBox class.
Deleted CSurfaceMovement class.
Deleted CVolumetricMovement class.
Deleted CConfig container.
Deleted nInst container.
Deleted COutput class.
-------------------------------------------------------------------------

------------------------- Exit Success (SU2_CFD) ------------------------

