
-------------------------------------------------------------------------
|    ___ _   _ ___                                                      |
|   / __| | | |_  )   Release 7.0.3 "Blackbird"                       |
|   \__ \ |_| |/ /                                                    |
|   |___/\___//___|   Suite (Computational Fluid Dynamics Code)        |
|                                                                       |
-------------------------------------------------------------------------
| SU2 Project Website: https://su2code.github.io                        |
|                                                                       |
| The SU2 Project is maintained by the SU2 Foundation                   |
| (http://su2foundation.org)                                            |
-------------------------------------------------------------------------
| Copyright 2012-2020, SU2 Contributors                                 |
|                                                                       |
| SU2 is free software; you can redistribute it and/or                  |
| modify it under the terms of the GNU Lesser General Public            |
| License as published by the Free Software Foundation; either          |
| version 2.1 of the License, or (at your option) any later version.    |
|                                                                       |
| SU2 is distributed in the hope that it will be useful,                |
| but WITHOUT ANY WARRANTY; without even the implied warranty of        |
| MERCHANTABILITY or FITNESS FOR A PARTICULAR PURPOSE. See the GNU      |
| Lesser General Public License for more details.                       |
|                                                                       |
| You should have received a copy of the GNU Lesser General Public      |
| License along with SU2. If not, see <http://www.gnu.org/licenses/>.   |
-------------------------------------------------------------------------


Problem definition:

Compressible Euler equations.
Mach number: 0.294.
Angle of attack (AoA): 10 deg, and angle of sideslip (AoS): 0 deg.
Dimensional simulation.
The reference area is 10 m^2.
The reference length is 1 m.


Problem definition:

Inviscid flow: Computing density based on free-stream
temperature and pressure using the ideal gas law.
Force coefficients computed using free-stream values.
-- Input conditions:
Fluid Model: STANDARD_AIR 
Specific gas constant: 287.058 N.m/kg.K.
Specific gas constant (non-dim): 287.058
Specific Heat Ratio: 1.4000 
Free-stream static pressure: 101325 Pa.
Free-stream total pressure: 107589 Pa.
Free-stream temperature: 288.15 K.
Free-stream total temperature: 293.131 K.
Free-stream density: 1.22498 kg/m^3.
Free-stream velocity: (98.5274, 0, 17.373) m/s. Magnitude: 100.047 m/s.
Free-stream total energy per unit mass: 211794 m^2/s^2.
-- Reference values:
Reference specific gas constant: 1 N.m/kg.K.
Reference pressure: 1 Pa.
Reference temperature: 1 K.
Reference density: 1 kg/m^3.
Reference velocity: 1 m/s.
Reference energy per unit mass: 1 m^2/s^2.
-- Resulting non-dimensional state:
Mach number (non-dim): 0.294
Specific gas constant (non-dim): 287.058
Free-stream temperature (non-dim): 288.15
Free-stream pressure (non-dim): 101325
Free-stream density (non-dim): 1.22498
Free-stream velocity (non-dim): (98.5274, 0, 17.373). Magnitude: 100.047
Free-stream total energy per unit mass (non-dim): 211794


Forces breakdown:

Center of Pressure: X=-0.074264Z-0.361770.

 m.

NOTE: Multiply forces by the non-dimensional factor: 61306.893900, and the reference factor: 1.000000
to obtain the dimensional force.

Total CL:       1.672313 | Pressure (  100%):    1.672313 | Friction (    0%):    0.000000 | Momentum (    0%):    0.000000
Total CD:       0.168475 | Pressure (   99%):    0.168475 | Friction (    0%):    0.000000 | Momentum (    0%):    0.000000
Total CSF:     -0.000668 | Pressure (  100%):   -0.000668 | Friction (    0%):    0.000000 | Momentum (    0%):    0.000000
Total CL/CD:    9.926191 | Pressure (  100%):    9.926191 | Friction (    0%):    0.000000 | Momentum (    0%):    0.000000
Total CMx:      0.018254 | Pressure (   99%):    0.018254 | Friction (    0%):    0.000000 | Momentum (    0%):    0.000000
Total CMy:      0.606386 | Pressure (   99%):    0.606386 | Friction (    0%):    0.000000 | Momentum (    0%):    0.000000
Total CMz:     -0.002428 | Pressure (  100%):   -0.002428 | Friction (    0%):    0.000000 | Momentum (    0%):    0.000000
Total CFx:     -0.124479 | Pressure (  100%):   -0.124479 | Friction (    0%):    0.000000 | Momentum (    0%):    0.000000
Total CFy:     -0.000668 | Pressure (  100%):   -0.000668 | Friction (    0%):    0.000000 | Momentum (    0%):    0.000000
Total CFz:      1.676162 | Pressure (  100%):    1.676162 | Friction (    0%):    0.000000 | Momentum (    0%):    0.000000


Surface name: Wing_1

Total CL    (  100%):    1.672313 | Pressure (  100%):    1.672313 | Friction (    0%):    0.000000 | Momentum (    0%):    0.000000
Total CD    (   99%):    0.168475 | Pressure (   99%):    0.168475 | Friction (    0%):    0.000000 | Momentum (    0%):    0.000000
Total CSF   (  100%):   -0.000668 | Pressure (  100%):   -0.000668 | Friction (    0%):    0.000000 | Momentum (    0%):    0.000000
Total CL/CD (  100%):    9.926191 | Pressure (  100%):    9.926191 | Friction (    0%):    0.000000 | Momentum (    0%):    0.000000
Total CMx   (   99%):    0.018254 | Pressure (   99%):    0.018254 | Friction (    0%):    0.000000 | Momentum (    0%):    0.000000
Total CMy   (   99%):    0.606386 | Pressure (   99%):    0.606386 | Friction (    0%):    0.000000 | Momentum (    0%):    0.000000
Total CMz   (  100%):   -0.002428 | Pressure (  100%):   -0.002428 | Friction (    0%):    0.000000 | Momentum (    0%):    0.000000
Total CFx   (  100%):   -0.124479 | Pressure (  100%):   -0.124479 | Friction (    0%):    0.000000 | Momentum (    0%):    0.000000
Total CFy   (  100%):   -0.000668 | Pressure (  100%):   -0.000668 | Friction (    0%):    0.000000 | Momentum (    0%):    0.000000
Total CFz   (  100%):    1.676162 | Pressure (  100%):    1.676162 | Friction (    0%):    0.000000 | Momentum (    0%):    0.000000

