
-------------------------------------------------------------------------
|    ___ _   _ ___                                                      |
|   / __| | | |_  )   Release 7.0.3 "Blackbird"                         |
|   \__ \ |_| |/ /                                                      |
|   |___/\___//___|   Suite (Computational Fluid Dynamics Code)         |
|                                                                       |
-------------------------------------------------------------------------
| SU2 Project Website: https://su2code.github.io                        |
|                                                                       |
| The SU2 Project is maintained by the SU2 Foundation                   |
| (http://su2foundation.org)                                            |
-------------------------------------------------------------------------
| Copyright 2012-2020, SU2 Contributors                                 |
|                                                                       |
| SU2 is free software; you can redistribute it and/or                  |
| modify it under the terms of the GNU Lesser General Public            |
| License as published by the Free Software Foundation; either          |
| version 2.1 of the License, or (at your option) any later version.    |
|                                                                       |
| SU2 is distributed in the hope that it will be useful,                |
| but WITHOUT ANY WARRANTY; without even the implied warranty of        |
| MERCHANTABILITY or FITNESS FOR A PARTICULAR PURPOSE. See the GNU      |
| Lesser General Public License for more details.                       |
|                                                                       |
| You should have received a copy of the GNU Lesser General Public      |
| License along with SU2. If not, see <http://www.gnu.org/licenses/>.   |
-------------------------------------------------------------------------

Parsing config file for zone 0

----------------- Physical Case Definition ( Zone 0 ) -------------------
Compressible Euler equations.
Mach number: 0.294.
Angle of attack (AoA): 10 deg, and angle of sideslip (AoS): 0 deg.
No restart solution, use the values at infinity (freestream).
Dimensional simulation.
The reference area is 10 m^2.
The semi-span will be computed using the max y(3D) value.
The reference length is 1 m.
Reference origin for moment evaluation is (0, 0, 0).
Surface(s) where the force coefficients are evaluated: Wing_1.

Surface(s) where the objective function is evaluated: airfoil.
Surface(s) plotted in the output file: Wing_1.
Surface(s) to be analyzed in detail: airfoil.
Surface(s) affected by the design variables: Wing_1.
Input mesh file name: deformed.su2

--------------- Space Numerical Integration ( Zone 0 ) ------------------
Roe (with entropy fix = 0) solver for the flow inviscid terms.
Roe with DDES's FD low-dissipation function.
Second order integration in space, with slope limiter.
Venkatakrishnan slope-limiting method, with constant: 0.05. 
The reference element size is: 1. 
Gradient for upwind reconstruction: Green-Gauss.
Gradient for viscous and source terms: Green-Gauss.

--------------- Time Numerical Integration  ( Zone 0 ) ------------------
Local time stepping (steady state simulation).
Euler implicit method for the flow equations.
FGMRES is used for solving the linear system.
Using a ILU(0) preconditioning.
Convergence criteria of the linear solver: 1e-06.
Max number of linear iterations: 5.
V Multigrid Cycle, with 3 multigrid levels.
Damping factor for the residual restriction: 0.75.
Damping factor for the correction prolongation: 0.75.
No CFL adaptation.
+-------------------------------------------+
|  MG Level| Presmooth|PostSmooth|CorrectSmo|
+-------------------------------------------+
|         0|         1|         0|         0|
|         1|         2|         0|         0|
|         2|         3|         0|         0|
|         3|         3|         0|         0|
+-------------------------------------------+
Courant-Friedrichs-Lewy number:        1

------------------ Convergence Criteria  ( Zone 0 ) ---------------------
Maximum number of solver subiterations: 1000.
Begin convergence monitoring at iteration 10.
Residual minimum value: 1e-8.
Cauchy series min. value: 1e-10.
Number of Cauchy elements: 100.
Begin windowed time average at iteration 15.

-------------------- Output Information ( Zone 0 ) ----------------------
Writing solution files every 10 iterations.
Writing the convergence history file every 1 inner iterations.
Writing the screen convergence history every 1 inner iterations.
The tabular file format is Tecplot (.dat).
Convergence history file name: history.
Forces breakdown file name: forces_breakdown.dat.
Surface file name: surface_flow.
Volume file name: flow.
Restart file name: solution_flow.dat.

------------- Config File Boundary Information ( Zone 0 ) ---------------
+-----------------------------------------------------------------------+
|                        Marker Type|                        Marker Name|
+-----------------------------------------------------------------------+
|                         Euler wall|                             Wing_1|
+-----------------------------------------------------------------------+
|                          Far-field|                           Farfield|
+-----------------------------------------------------------------------+
|                     Symmetry plane|                                  0|
+-----------------------------------------------------------------------+
|           Deformable mesh boundary|                            airfoil|
+-----------------------------------------------------------------------+

-------------------- Output Preprocessing ( Zone 0 ) --------------------
Screen output fields: INNER_ITER, TIME_ITER, RMS_DENSITY, RMS_MOMENTUM-X, RMS_MOMENTUM-Y, RMS_ENERGY, LIFT, DRAG
  Info: Ignoring the following history output groups:
  TIME_ITER
History output group(s): ITER, RMS_RES, AERO_COEFF
Warning: No (valid) fields chosen for convergence monitoring. Convergence monitoring inactive.
Warning: No (valid) fields chosen for time convergence monitoring. Time convergence monitoring inactive.
Volume output fields: COORDINATES, SOLUTION, PRIMITIVE

------------------- Geometry Preprocessing ( Zone 0 ) -------------------
Three dimensional problem.
142678 grid points before partitioning.
739205 volume elements before partitioning.
2 surface markers.
99234 boundary elements in index 0 (Marker = Wing_1).
1280 boundary elements in index 1 (Marker = Farfield).
Executing the partitioning functions.
Building the graph adjacency structure.
Calling ParMETIS... graph partitioning complete (18884 edge cuts).
Distributing ParMETIS coloring.
Rebalancing vertices.
Rebalancing volume element connectivity.
Rebalancing markers and surface elements.
153425 vertices including ghost points. 
767118 interior elements including halo cells. 
767118 tetrahedra.
Establishing MPI communication patterns.
Setting point connectivity.
Renumbering points (Reverse Cuthill McKee Ordering).
Recomputing point connectivity.
Setting element connectivity.
Checking the numerical grid orientation.
Identifying edges and vertices.
Computing centers of gravity.
Setting the control volume structure.
Volume of the computational grid: 587307.
Searching for the closest normal neighbors to the surfaces.
Storing a mapping from global to local point index.
Compute the surface curvature.
Max K: 955.354. Mean K: 12.8886. Standard deviation K: 55.0109.
Checking for periodicity.
Computing mesh quality statistics for the dual control volumes.
+--------------------------------------------------------------+
|           Mesh Quality Metric|        Minimum|        Maximum|
+--------------------------------------------------------------+
|    Orthogonality Angle (deg.)|        46.5559|        85.7738|
|     CV Face Area Aspect Ratio|        1.42405|        36.8963|
|           CV Sub-Volume Ratio|        1.02914|        142.695|
+--------------------------------------------------------------+
Setting the multigrid structure.
+-------------------------------------------+
|  MG Level|       CVs|Aggl. Rate|       CFL|
+-------------------------------------------+
|         0|    153425|    1/1.00|         1|
|         1|     27876|     1/5.5|  0.849577|
|         2|      6802|     1/4.1|  0.796335|
Finding max control volume width.
Communicating number of neighbors.
Semi-span length = 4.99086 m.
Wetted area = 42.1808 m^2.
Area projection in the x-plane = 3.07557 m^2, y-plane = 1.48959 m^2, z-plane = 20.0999 m^2.
Max. coordinate in the x-direction = 1.02241 m, y-direction = 4.99086 m, z-direction = 0.471271 m.
Min. coordinate in the x-direction = -1.02435 m, y-direction = -4.99028 m, z-direction = -0.119339 m.
Checking if Euler & Symmetry markers are straight/plane:
Boundary marker Wing_1 is NOT a single plane.
Boundary marker 0 is a single plane.

-------------------- Solver Preprocessing ( Zone 0 ) --------------------
Inviscid flow: Computing density based on free-stream
temperature and pressure using the ideal gas law.
Force coefficients computed using free-stream values.

-- Models:
+------------------------------------------------------------------------------+
|          Viscosity Model|        Conductivity Model|              Fluid Model|
+------------------------------------------------------------------------------+
|                        -|                         -|             STANDARD_AIR|
+------------------------------------------------------------------------------+
-- Fluid properties:
+------------------------------------------------------------------------------+
|                  Name|    Dim. value|    Ref. value|      Unit|Non-dim. value|
+------------------------------------------------------------------------------+
|          Gas Constant|       287.058|             1|  N.m/kg.K|       287.058|
|      Spec. Heat Ratio|             -|             -|         -|           1.4|
+------------------------------------------------------------------------------+
-- Initial and free-stream conditions:
+------------------------------------------------------------------------------+
|                  Name|    Dim. value|    Ref. value|      Unit|Non-dim. value|
+------------------------------------------------------------------------------+
|       Static Pressure|        101325|             1|        Pa|        101325|
|               Density|       1.22498|             1|    kg/m^3|       1.22498|
|           Temperature|        288.15|             1|         K|        288.15|
|          Total Energy|        211794|             1|   m^2/s^2|        211794|
|            Velocity-X|       98.5274|             1|       m/s|       98.5274|
|            Velocity-Y|             0|             1|       m/s|             0|
|            Velocity-Z|        17.373|             1|       m/s|        17.373|
|    Velocity Magnitude|       100.047|             1|       m/s|       100.047|
+------------------------------------------------------------------------------+
|           Mach Number|             -|             -|         -|         0.294|
+------------------------------------------------------------------------------+
Initialize Jacobian structure (Euler). MG level: 0.
Initialize Jacobian structure (Euler). MG level: 1.
Initialize Jacobian structure (Euler). MG level: 2.

------------------- Numerics Preprocessing ( Zone 0 ) -------------------

----------------- Integration Preprocessing ( Zone 0 ) ------------------

------------------- Iteration Preprocessing ( Zone 0 ) ------------------
Euler/Navier-Stokes/RANS fluid iteration.

------------------------------ Begin Solver -----------------------------

Simulation Run using the Single-zone Driver
+-------------------------------------------------------------------------------------------------------+
|  Inner_Iter|   Time_Iter|    rms[Rho]|   rms[RhoU]|   rms[RhoV]|   rms[RhoE]|          CL|          CD|
+-------------------------------------------------------------------------------------------------------+
|           0|           0|   -1.663762|    0.504513|   -0.365187|    3.805338|    2.090982|    0.940204|
|           1|           0|   -1.771974|    0.414039|   -0.139468|    3.697422|    3.641345|    1.623186|
|           2|           0|   -1.774894|    0.445118|    0.049834|    3.696262|    4.722947|    2.083644|
|           3|           0|   -1.720662|    0.530290|    0.166527|    3.751289|    5.419104|    2.360076|
|           4|           0|   -1.657889|    0.626172|    0.262075|    3.814441|    5.808197|    2.489130|
|           5|           0|   -1.599523|    0.722682|    0.354289|    3.873359|    5.961126|    2.505081|
|           6|           0|   -1.545867|    0.817487|    0.447497|    3.927795|    5.938598|    2.438162|
|           7|           0|   -1.495903|    0.908768|    0.541263|    3.978662|    5.791622|    2.314025|
|           8|           0|   -1.449406|    0.995002|    0.634100|    4.026076|    5.562981|    2.154222|
|           9|           0|   -1.406726|    1.075025|    0.724463|    4.069586|    5.287360|    1.976339|
|          10|           0|   -1.368645|    1.148230|    0.811147|    4.108349|    4.989787|    1.793435|
+-----------------------------------------------------------------------+
|        File Writing Summary       |              Filename             |
+-----------------------------------------------------------------------+
|SU2 restart                        |solution_flow.dat                  |
|Paraview                           |flow.vtu                           |
|Paraview surface                   |surface_flow.vtu                   |
+-----------------------------------------------------------------------+

Writing the forces breakdown file (forces_breakdown.dat).
+-------------------------------------------------------------------------------------------------------+
|  Inner_Iter|   Time_Iter|    rms[Rho]|   rms[RhoU]|   rms[RhoV]|   rms[RhoE]|          CL|          CD|
+-------------------------------------------------------------------------------------------------------+
|          11|           0|   -1.335610|    1.214454|    0.893180|    4.141853|    4.686843|    1.614203|
|          12|           0|   -1.308182|    1.273622|    0.969894|    4.169441|    4.389403|    1.444315|
|          13|           0|   -1.286619|    1.325855|    1.040759|    4.190738|    4.103671|    1.286838|
|          14|           0|   -1.270899|    1.371315|    1.105399|    4.205602|    3.832031|    1.142700|
|          15|           0|   -1.260859|    1.410174|    1.163689|    4.214008|    3.574237|    1.011412|
|          16|           0|   -1.255940|    1.442602|    1.215547|    4.216243|    3.328369|    0.891606|
|          17|           0|   -1.255056|    1.468730|    1.260990|    4.213131|    3.091689|    0.781479|
|          18|           0|   -1.256432|    1.488769|    1.300029|    4.206286|    2.861221|    0.679123|
|          19|           0|   -1.257551|    1.502862|    1.332653|    4.198348|    2.634231|    0.582760|
|          20|           0|   -1.255588|    1.511269|    1.359043|    4.192842|    2.408531|    0.490905|
+-----------------------------------------------------------------------+
|        File Writing Summary       |              Filename             |
+-----------------------------------------------------------------------+
|SU2 restart                        |solution_flow.dat                  |
|Paraview                           |flow.vtu                           |
|Paraview surface                   |surface_flow.vtu                   |
+-----------------------------------------------------------------------+

Writing the forces breakdown file (forces_breakdown.dat).
+-------------------------------------------------------------------------------------------------------+
|  Inner_Iter|   Time_Iter|    rms[Rho]|   rms[RhoU]|   rms[RhoV]|   rms[RhoE]|          CL|          CD|
+-------------------------------------------------------------------------------------------------------+
|          21|           0|   -1.247971|    1.514206|    1.379287|    4.193715|    2.182640|    0.402429|
|          22|           0|   -1.233050|    1.512131|    1.393607|    4.204285|    1.955941|    0.316610|
|          23|           0|   -1.211510|    1.505830|    1.402180|    4.224819|    1.728609|    0.233113|
|          24|           0|   -1.185716|    1.495526|    1.405447|    4.252566|    1.501595|    0.151962|
|          25|           0|   -1.158612|    1.482096|    1.403794|    4.283566|    1.276430|    0.073461|
|          26|           0|   -1.132895|    1.466650|    1.397644|    4.314050|    1.055117|   -0.001877|
|          27|           0|   -1.110578|    1.450275|    1.387446|    4.341169|    0.839942|   -0.073418|
|          28|           0|   -1.092901|    1.433793|    1.374150|    4.363205|    0.633284|   -0.140480|
|          29|           0|   -1.080167|    1.417776|    1.358197|    4.379659|    0.437514|   -0.202377|
|          30|           0|   -1.072543|    1.402659|    1.340243|    4.390166|    0.254848|   -0.258483|
+-----------------------------------------------------------------------+
|        File Writing Summary       |              Filename             |
+-----------------------------------------------------------------------+
|SU2 restart                        |solution_flow.dat                  |
|Paraview                           |flow.vtu                           |
|Paraview surface                   |surface_flow.vtu                   |
+-----------------------------------------------------------------------+

Writing the forces breakdown file (forces_breakdown.dat).
+-------------------------------------------------------------------------------------------------------+
|  Inner_Iter|   Time_Iter|    rms[Rho]|   rms[RhoU]|   rms[RhoV]|   rms[RhoE]|          CL|          CD|
+-------------------------------------------------------------------------------------------------------+
|          31|           0|   -1.069076|    1.388714|    1.320602|    4.395590|    0.087322|   -0.308247|
|          32|           0|   -1.068703|    1.376860|    1.300116|    4.396897|   -0.063280|   -0.351228|
|          33|           0|   -1.069997|    1.368363|    1.279265|    4.395535|   -0.195440|   -0.387100|
|          34|           0|   -1.070430|    1.363675|    1.259109|    4.393929|   -0.307923|   -0.415640|
|          35|           0|   -1.068193|    1.363647|    1.240735|    4.394172|   -0.399780|   -0.436734|
|          36|           0|   -1.062831|    1.369326|    1.227534|    4.397210|   -0.470331|   -0.450364|
|          37|           0|   -1.054046|    1.382143|    1.222419|    4.403844|   -0.519154|   -0.456597|
|          38|           0|   -1.043088|    1.402101|    1.229472|    4.412990|   -0.546059|   -0.455568|
|          39|           0|   -1.031290|    1.427673|    1.249779|    4.423647|   -0.551049|   -0.447465|
|          40|           0|   -1.020618|    1.455368|    1.281206|    4.433616|   -0.534339|   -0.432531|
+-----------------------------------------------------------------------+
|        File Writing Summary       |              Filename             |
+-----------------------------------------------------------------------+
|SU2 restart                        |solution_flow.dat                  |
|Paraview                           |flow.vtu                           |
|Paraview surface                   |surface_flow.vtu                   |
+-----------------------------------------------------------------------+

Writing the forces breakdown file (forces_breakdown.dat).
+-------------------------------------------------------------------------------------------------------+
|  Inner_Iter|   Time_Iter|    rms[Rho]|   rms[RhoU]|   rms[RhoV]|   rms[RhoE]|          CL|          CD|
+-------------------------------------------------------------------------------------------------------+
|          41|           0|   -1.013243|    1.482781|    1.320538|    4.440435|   -0.496372|   -0.411064|
|          42|           0|   -1.010240|    1.508955|    1.363111|    4.442860|   -0.437787|   -0.383398|
|          43|           0|   -1.011744|    1.531882|    1.404374|    4.440323|   -0.359421|   -0.349917|
|          44|           0|   -1.017620|    1.549967|    1.441679|    4.432779|   -0.262315|   -0.311052|
|          45|           0|   -1.027802|    1.562956|    1.473286|    4.420260|   -0.147707|   -0.267276|
|          46|           0|   -1.038956|    1.569805|    1.498040|    4.405917|   -0.017048|   -0.219116|
|          47|           0|   -1.050144|    1.570994|    1.515751|    4.391162|    0.127982|   -0.167149|
|          48|           0|   -1.058838|    1.565941|    1.526595|    4.378958|    0.285533|   -0.112001|
|          49|           0|   -1.061949|    1.554939|    1.530663|    4.373424|    0.453603|   -0.054332|
|          50|           0|   -1.058868|    1.537205|    1.527720|    4.375627|    0.630037|    0.005151|
+-----------------------------------------------------------------------+
|        File Writing Summary       |              Filename             |
+-----------------------------------------------------------------------+
|SU2 restart                        |solution_flow.dat                  |
|Paraview                           |flow.vtu                           |
|Paraview surface                   |surface_flow.vtu                   |
+-----------------------------------------------------------------------+

Writing the forces breakdown file (forces_breakdown.dat).
+-------------------------------------------------------------------------------------------------------+
|  Inner_Iter|   Time_Iter|    rms[Rho]|   rms[RhoU]|   rms[RhoV]|   rms[RhoE]|          CL|          CD|
+-------------------------------------------------------------------------------------------------------+
|          51|           0|   -1.050681|    1.513443|    1.518483|    4.384952|    0.812564|    0.065712|
|          52|           0|   -1.038563|    1.484204|    1.502922|    4.400096|    0.998846|    0.126592|
|          53|           0|   -1.025112|    1.451613|    1.482526|    4.417631|    1.186505|    0.187024|
|          54|           0|   -1.012805|    1.418575|    1.458768|    4.434483|    1.373118|    0.246233|
|          55|           0|   -1.003377|    1.388503|    1.433441|    4.448320|    1.556308|    0.303463|
|          56|           0|   -0.997686|    1.364963|    1.409510|    4.458021|    1.733753|    0.357978|
|          57|           0|   -0.995821|    1.352913|    1.390672|    4.463342|    1.903250|    0.409092|
|          58|           0|   -0.999411|    1.352181|    1.380996|    4.462323|    2.062741|    0.456166|
|          59|           0|   -1.007247|    1.362117|    1.382607|    4.456202|    2.210329|    0.498630|
|          60|           0|   -1.018967|    1.379061|    1.394267|    4.445117|    2.344324|    0.535989|
+-----------------------------------------------------------------------+
|        File Writing Summary       |              Filename             |
+-----------------------------------------------------------------------+
|SU2 restart                        |solution_flow.dat                  |
|Paraview                           |flow.vtu                           |
|Paraview surface                   |surface_flow.vtu                   |
+-----------------------------------------------------------------------+

Writing the forces breakdown file (forces_breakdown.dat).
+-------------------------------------------------------------------------------------------------------+
|  Inner_Iter|   Time_Iter|    rms[Rho]|   rms[RhoU]|   rms[RhoV]|   rms[RhoE]|          CL|          CD|
+-------------------------------------------------------------------------------------------------------+
|          61|           0|   -1.033769|    1.399858|    1.413013|    4.429600|    2.463288|    0.567835|
|          62|           0|   -1.050083|    1.421447|    1.435438|    4.410877|    2.566049|    0.593857|
|          63|           0|   -1.066489|    1.441376|    1.458263|    4.390203|    2.651717|    0.613843|
|          64|           0|   -1.081850|    1.459239|    1.479504|    4.368768|    2.719690|    0.627681|
|          65|           0|   -1.096264|    1.473763|    1.497597|    4.346689|    2.769660|    0.635365|
|          66|           0|   -1.107645|    1.484030|    1.511890|    4.326777|    2.801607|    0.636982|
|          67|           0|   -1.115145|    1.489828|    1.522011|    4.310687|    2.815802|    0.632717|
|          68|           0|   -1.119859|    1.491783|    1.527946|    4.298377|    2.812778|    0.622846|
|          69|           0|   -1.122625|    1.490101|    1.529516|    4.290001|    2.793322|    0.607725|
|          70|           0|   -1.124455|    1.484339|    1.526649|    4.284959|    2.758447|    0.587785|
+-----------------------------------------------------------------------+
|        File Writing Summary       |              Filename             |
+-----------------------------------------------------------------------+
|SU2 restart                        |solution_flow.dat                  |
|Paraview                           |flow.vtu                           |
|Paraview surface                   |surface_flow.vtu                   |
+-----------------------------------------------------------------------+

Writing the forces breakdown file (forces_breakdown.dat).
+-------------------------------------------------------------------------------------------------------+
|  Inner_Iter|   Time_Iter|    rms[Rho]|   rms[RhoU]|   rms[RhoV]|   rms[RhoE]|          CL|          CD|
+-------------------------------------------------------------------------------------------------------+
|          71|           0|   -1.125452|    1.474376|    1.519535|    4.283599|    2.709364|    0.563517|
|          72|           0|   -1.126801|    1.460805|    1.508299|    4.284057|    2.647451|    0.535464|
|          73|           0|   -1.128136|    1.443358|    1.493165|    4.286548|    2.574220|    0.504209|
|          74|           0|   -1.129798|    1.421980|    1.474712|    4.290097|    2.491270|    0.470354|
|          75|           0|   -1.132392|    1.396661|    1.453183|    4.293431|    2.400284|    0.434518|
|          76|           0|   -1.136289|    1.368005|    1.429165|    4.295682|    2.302983|    0.397321|
|          77|           0|   -1.141745|    1.336505|    1.403154|    4.296173|    2.201099|    0.359373|
|          78|           0|   -1.148919|    1.304047|    1.376970|    4.294391|    2.096338|    0.321258|
|          79|           0|   -1.158433|    1.271602|    1.352091|    4.289598|    1.990339|    0.283534|
|          80|           0|   -1.169595|    1.241548|    1.329676|    4.282461|    1.884656|    0.246712|
+-----------------------------------------------------------------------+
|        File Writing Summary       |              Filename             |
+-----------------------------------------------------------------------+
|SU2 restart                        |solution_flow.dat                  |
|Paraview                           |flow.vtu                           |
|Paraview surface                   |surface_flow.vtu                   |
+-----------------------------------------------------------------------+

Writing the forces breakdown file (forces_breakdown.dat).
+-------------------------------------------------------------------------------------------------------+
|  Inner_Iter|   Time_Iter|    rms[Rho]|   rms[RhoU]|   rms[RhoV]|   rms[RhoE]|          CL|          CD|
+-------------------------------------------------------------------------------------------------------+
|          81|           0|   -1.182671|    1.216805|    1.310910|    4.272640|    1.780743|    0.211262|
|          82|           0|   -1.197283|    1.198492|    1.296753|    4.260235|    1.679948|    0.177601|
|          83|           0|   -1.212600|    1.188491|    1.287657|    4.246107|    1.583500|    0.146096|
|          84|           0|   -1.228504|    1.187645|    1.283203|    4.230378|    1.492480|    0.117056|
|          85|           0|   -1.245056|    1.194754|    1.282357|    4.212876|    1.407822|    0.090730|
|          86|           0|   -1.261847|    1.207909|    1.283872|    4.193992|    1.330317|    0.067310|
|          87|           0|   -1.279044|    1.224031|    1.286589|    4.173542|    1.260597|    0.046930|
|          88|           0|   -1.296210|    1.240420|    1.289640|    4.151954|    1.199151|    0.029668|
|          89|           0|   -1.312532|    1.256946|    1.292236|    4.130319|    1.146331|    0.015552|
|          90|           0|   -1.327609|    1.271768|    1.293977|    4.109416|    1.102355|    0.004565|
+-----------------------------------------------------------------------+
|        File Writing Summary       |              Filename             |
+-----------------------------------------------------------------------+
|SU2 restart                        |solution_flow.dat                  |
|Paraview                           |flow.vtu                           |
|Paraview surface                   |surface_flow.vtu                   |
+-----------------------------------------------------------------------+

Writing the forces breakdown file (forces_breakdown.dat).
+-------------------------------------------------------------------------------------------------------+
|  Inner_Iter|   Time_Iter|    rms[Rho]|   rms[RhoU]|   rms[RhoV]|   rms[RhoE]|          CL|          CD|
+-------------------------------------------------------------------------------------------------------+
|          91|           0|   -1.341150|    1.284286|    1.294362|    4.089702|    1.067324|   -0.003353|
|          92|           0|   -1.352854|    1.293981|    1.293254|    4.071704|    1.041223|   -0.008301|
|          93|           0|   -1.362717|    1.301106|    1.290656|    4.055897|    1.023935|   -0.010403|
|          94|           0|   -1.370971|    1.306104|    1.286630|    4.042508|    1.015238|   -0.009817|
|          95|           0|   -1.378220|    1.308346|    1.281333|    4.031047|    1.014826|   -0.006727|
|          96|           0|   -1.385480|    1.307817|    1.274729|    4.020578|    1.022308|   -0.001338|
|          97|           0|   -1.393123|    1.305421|    1.266819|    4.010799|    1.037253|    0.006142|
|          98|           0|   -1.401374|    1.301215|    1.257976|    4.001360|    1.059154|    0.015488|
|          99|           0|   -1.410380|    1.294824|    1.247832|    3.992088|    1.087482|    0.026473|
|         100|           0|   -1.420405|    1.286608|    1.236535|    3.982728|    1.121692|    0.038874|
+-----------------------------------------------------------------------+
|        File Writing Summary       |              Filename             |
+-----------------------------------------------------------------------+
|SU2 restart                        |solution_flow.dat                  |
|Paraview                           |flow.vtu                           |
|Paraview surface                   |surface_flow.vtu                   |
+-----------------------------------------------------------------------+

Writing the forces breakdown file (forces_breakdown.dat).
+-------------------------------------------------------------------------------------------------------+
|  Inner_Iter|   Time_Iter|    rms[Rho]|   rms[RhoU]|   rms[RhoV]|   rms[RhoE]|          CL|          CD|
+-------------------------------------------------------------------------------------------------------+
|         101|           0|   -1.431210|    1.276412|    1.224267|    3.973552|    1.161165|    0.052457|
|         102|           0|   -1.442018|    1.264056|    1.211267|    3.965482|    1.205283|    0.066997|
|         103|           0|   -1.452874|    1.249921|    1.197875|    3.958331|    1.253388|    0.082268|
|         104|           0|   -1.464374|    1.234560|    1.184118|    3.951197|    1.304818|    0.098050|
|         105|           0|   -1.475744|    1.217302|    1.170023|    3.944822|    1.358904|    0.114134|
|         106|           0|   -1.486990|    1.198150|    1.155712|    3.939094|    1.414970|    0.130316|
|         107|           0|   -1.498134|    1.178040|    1.141250|    3.933651|    1.472358|    0.146407|
|         108|           0|   -1.509316|    1.157630|    1.126856|    3.928236|    1.530406|    0.162226|
|         109|           0|   -1.520391|    1.137483|    1.112601|    3.922832|    1.588470|    0.177605|
|         110|           0|   -1.531549|    1.118315|    1.098770|    3.916951|    1.645945|    0.192392|
+-----------------------------------------------------------------------+
|        File Writing Summary       |              Filename             |
+-----------------------------------------------------------------------+
|SU2 restart                        |solution_flow.dat                  |
|Paraview                           |flow.vtu                           |
|Paraview surface                   |surface_flow.vtu                   |
+-----------------------------------------------------------------------+

Writing the forces breakdown file (forces_breakdown.dat).
+-------------------------------------------------------------------------------------------------------+
|  Inner_Iter|   Time_Iter|    rms[Rho]|   rms[RhoU]|   rms[RhoV]|   rms[RhoE]|          CL|          CD|
+-------------------------------------------------------------------------------------------------------+
|         111|           0|   -1.542459|    1.100909|    1.085683|    3.910683|    1.702234|    0.206446|
|         112|           0|   -1.553704|    1.085776|    1.073925|    3.903324|    1.756777|    0.219642|
|         113|           0|   -1.564207|    1.073718|    1.063877|    3.895869|    1.809036|    0.231870|
|         114|           0|   -1.573697|    1.065232|    1.055827|    3.888457|    1.858520|    0.243031|
|         115|           0|   -1.582437|    1.060697|    1.050074|    3.880685|    1.904770|    0.253045|
|         116|           0|   -1.590358|    1.060043|    1.046675|    3.872609|    1.947389|    0.261849|
|         117|           0|   -1.597293|    1.062706|    1.045462|    3.864366|    1.986026|    0.269394|
|         118|           0|   -1.603571|    1.068417|    1.046313|    3.855624|    2.020381|    0.275649|
|         119|           0|   -1.609075|    1.076685|    1.048824|    3.846688|    2.050188|    0.280589|
|         120|           0|   -1.614314|    1.086500|    1.052563|    3.837156|    2.075260|    0.284209|
+-----------------------------------------------------------------------+
|        File Writing Summary       |              Filename             |
+-----------------------------------------------------------------------+
|SU2 restart                        |solution_flow.dat                  |
|Paraview                           |flow.vtu                           |
|Paraview surface                   |surface_flow.vtu                   |
+-----------------------------------------------------------------------+

Writing the forces breakdown file (forces_breakdown.dat).
+-------------------------------------------------------------------------------------------------------+
|  Inner_Iter|   Time_Iter|    rms[Rho]|   rms[RhoU]|   rms[RhoV]|   rms[RhoE]|          CL|          CD|
+-------------------------------------------------------------------------------------------------------+
|         121|           0|   -1.619014|    1.096767|    1.057095|    3.827376|    2.095452|    0.286517|
|         122|           0|   -1.624092|    1.106763|    1.061925|    3.816652|    2.110668|    0.287531|
|         123|           0|   -1.629364|    1.116222|    1.066644|    3.805427|    2.120865|    0.287281|
|         124|           0|   -1.634789|    1.124782|    1.070814|    3.794045|    2.126066|    0.285811|
|         125|           0|   -1.640658|    1.132142|    1.073975|    3.782503|    2.126338|    0.283174|
|         126|           0|   -1.646135|    1.136559|    1.075808|    3.771446|    2.121817|    0.279438|
|         127|           0|   -1.651225|    1.138773|    1.075951|    3.761413|    2.112718|    0.274688|
|         128|           0|   -1.655632|    1.138560|    1.074006|    3.753049|    2.099276|    0.269014|
|         129|           0|   -1.659016|    1.136121|    1.069713|    3.747184|    2.081773|    0.262512|
|         130|           0|   -1.661406|    1.131147|    1.062714|    3.743983|    2.060546|    0.255288|
+-----------------------------------------------------------------------+
|        File Writing Summary       |              Filename             |
+-----------------------------------------------------------------------+
|SU2 restart                        |solution_flow.dat                  |
|Paraview                           |flow.vtu                           |
|Paraview surface                   |surface_flow.vtu                   |
+-----------------------------------------------------------------------+

Writing the forces breakdown file (forces_breakdown.dat).
+-------------------------------------------------------------------------------------------------------+
|  Inner_Iter|   Time_Iter|    rms[Rho]|   rms[RhoU]|   rms[RhoV]|   rms[RhoE]|          CL|          CD|
+-------------------------------------------------------------------------------------------------------+
|         131|           0|   -1.662486|    1.123534|    1.052923|    3.743845|    2.035967|    0.247452|
|         132|           0|   -1.662581|    1.113439|    1.040241|    3.746323|    2.008435|    0.239121|
|         133|           0|   -1.661763|    1.100961|    1.024407|    3.751156|    1.978373|    0.230411|
|         134|           0|   -1.660552|    1.086199|    1.005354|    3.757406|    1.946222|    0.221443|
|         135|           0|   -1.658809|    1.070203|    0.983313|    3.765174|    1.912441|    0.212336|
|         136|           0|   -1.657425|    1.051950|    0.957763|    3.772722|    1.877494|    0.203207|
|         137|           0|   -1.656466|    1.031842|    0.929069|    3.779964|    1.841852|    0.194172|
|         138|           0|   -1.655962|    1.010601|    0.897600|    3.786670|    1.805986|    0.185341|
|         139|           0|   -1.655824|    0.989316|    0.864018|    3.792771|    1.770362|    0.176818|
|         140|           0|   -1.656873|    0.968822|    0.829426|    3.797191|    1.735429|    0.168701|
+-----------------------------------------------------------------------+
|        File Writing Summary       |              Filename             |
+-----------------------------------------------------------------------+
|SU2 restart                        |solution_flow.dat                  |
|Paraview                           |flow.vtu                           |
|Paraview surface                   |surface_flow.vtu                   |
+-----------------------------------------------------------------------+

Writing the forces breakdown file (forces_breakdown.dat).
+-------------------------------------------------------------------------------------------------------+
|  Inner_Iter|   Time_Iter|    rms[Rho]|   rms[RhoU]|   rms[RhoV]|   rms[RhoE]|          CL|          CD|
+-------------------------------------------------------------------------------------------------------+
|         141|           0|   -1.659336|    0.950240|    0.795569|    3.799358|    1.701610|    0.161076|
|         142|           0|   -1.663032|    0.935165|    0.764895|    3.799502|    1.669297|    0.154021|
|         143|           0|   -1.667724|    0.924454|    0.740452|    3.797843|    1.638869|    0.147605|
|         144|           0|   -1.673992|    0.918763|    0.725159|    3.793734|    1.610658|    0.141886|
|         145|           0|   -1.681173|    0.918031|    0.720751|    3.787794|    1.584977|    0.136913|
|         146|           0|   -1.689359|    0.921287|    0.726892|    3.779602|    1.562093|    0.132723|
|         147|           0|   -1.698266|    0.928132|    0.741515|    3.769558|    1.542250|    0.129342|
|         148|           0|   -1.707563|    0.937564|    0.761576|    3.757909|    1.525631|    0.126783|
|         149|           0|   -1.716881|    0.948299|    0.784298|    3.744838|    1.512364|    0.125041|
|         150|           0|   -1.725951|    0.959123|    0.807474|    3.730522|    1.502517|    0.124098|
+-----------------------------------------------------------------------+
|        File Writing Summary       |              Filename             |
+-----------------------------------------------------------------------+
|SU2 restart                        |solution_flow.dat                  |
|Paraview                           |flow.vtu                           |
|Paraview surface                   |surface_flow.vtu                   |
+-----------------------------------------------------------------------+

Writing the forces breakdown file (forces_breakdown.dat).
+-------------------------------------------------------------------------------------------------------+
|  Inner_Iter|   Time_Iter|    rms[Rho]|   rms[RhoU]|   rms[RhoV]|   rms[RhoE]|          CL|          CD|
+-------------------------------------------------------------------------------------------------------+
|         151|           0|   -1.734177|    0.969660|    0.829588|    3.715666|    1.496133|    0.123929|
|         152|           0|   -1.741068|    0.979246|    0.849531|    3.700934|    1.493208|    0.124502|
|         153|           0|   -1.745940|    0.987583|    0.866869|    3.687452|    1.493675|    0.125768|
|         154|           0|   -1.748986|    0.994191|    0.881190|    3.675527|    1.497456|    0.127680|
|         155|           0|   -1.750224|    0.998641|    0.892362|    3.665757|    1.504424|    0.130180|
|         156|           0|   -1.749860|    1.001015|    0.900301|    3.658622|    1.514417|    0.133204|
|         157|           0|   -1.748173|    1.001327|    0.905062|    3.654337|    1.527236|    0.136686|
|         158|           0|   -1.746007|    0.999115|    0.906771|    3.652180|    1.542655|    0.140554|
|         159|           0|   -1.743743|    0.994428|    0.905499|    3.651977|    1.560420|    0.144735|
|         160|           0|   -1.741284|    0.987513|    0.901283|    3.653946|    1.580269|    0.149154|
+-----------------------------------------------------------------------+
|        File Writing Summary       |              Filename             |
+-----------------------------------------------------------------------+
|SU2 restart                        |solution_flow.dat                  |
|Paraview                           |flow.vtu                           |
|Paraview surface                   |surface_flow.vtu                   |
+-----------------------------------------------------------------------+

Writing the forces breakdown file (forces_breakdown.dat).
+-------------------------------------------------------------------------------------------------------+
|  Inner_Iter|   Time_Iter|    rms[Rho]|   rms[RhoU]|   rms[RhoV]|   rms[RhoE]|          CL|          CD|
+-------------------------------------------------------------------------------------------------------+
|         161|           0|   -1.739186|    0.978329|    0.894062|    3.657220|    1.601912|    0.153739|
|         162|           0|   -1.737912|    0.967084|    0.883828|    3.660979|    1.625049|    0.158413|
|         163|           0|   -1.737366|    0.953728|    0.870801|    3.665148|    1.649368|    0.163107|
|         164|           0|   -1.737730|    0.937983|    0.855431|    3.669303|    1.674554|    0.167751|
|         165|           0|   -1.739414|    0.920197|    0.837521|    3.672748|    1.700282|    0.172282|
|         166|           0|   -1.742465|    0.900479|    0.817168|    3.675196|    1.726232|    0.176637|
|         167|           0|   -1.746721|    0.879216|    0.794530|    3.676608|    1.752085|    0.180758|
|         168|           0|   -1.752044|    0.856731|    0.769883|    3.677072|    1.777536|    0.184593|
|         169|           0|   -1.758280|    0.833756|    0.743845|    3.676626|    1.802281|    0.188094|
|         170|           0|   -1.765255|    0.810916|    0.717247|    3.675246|    1.826047|    0.191223|
+-----------------------------------------------------------------------+
|        File Writing Summary       |              Filename             |
+-----------------------------------------------------------------------+
|SU2 restart                        |solution_flow.dat                  |
|Paraview                           |flow.vtu                           |
|Paraview surface                   |surface_flow.vtu                   |
+-----------------------------------------------------------------------+

Writing the forces breakdown file (forces_breakdown.dat).
+-------------------------------------------------------------------------------------------------------+
|  Inner_Iter|   Time_Iter|    rms[Rho]|   rms[RhoU]|   rms[RhoV]|   rms[RhoE]|          CL|          CD|
+-------------------------------------------------------------------------------------------------------+
|         171|           0|   -1.772785|    0.788925|    0.691170|    3.672989|    1.848578|    0.193950|
|         172|           0|   -1.780660|    0.768961|    0.666860|    3.669918|    1.869647|    0.196252|
|         173|           0|   -1.788638|    0.752556|    0.645814|    3.666091|    1.889026|    0.198105|
|         174|           0|   -1.796732|    0.740766|    0.629686|    3.661302|    1.906513|    0.199493|
|         175|           0|   -1.805052|    0.734394|    0.619826|    3.655290|    1.921943|    0.200410|
|         176|           0|   -1.813553|    0.733526|    0.616843|    3.647908|    1.935161|    0.200851|
|         177|           0|   -1.821813|    0.737728|    0.620619|    3.639553|    1.946049|    0.200819|
|         178|           0|   -1.829529|    0.746233|    0.630048|    3.630513|    1.954532|    0.200326|
|         179|           0|   -1.836866|    0.757681|    0.643541|    3.620547|    1.960564|    0.199392|
|         180|           0|   -1.843331|    0.771129|    0.659500|    3.610257|    1.964130|    0.198039|
+-----------------------------------------------------------------------+
|        File Writing Summary       |              Filename             |
+-----------------------------------------------------------------------+
|SU2 restart                        |solution_flow.dat                  |
|Paraview                           |flow.vtu                           |
|Paraview surface                   |surface_flow.vtu                   |
+-----------------------------------------------------------------------+

Writing the forces breakdown file (forces_breakdown.dat).
+-------------------------------------------------------------------------------------------------------+
|  Inner_Iter|   Time_Iter|    rms[Rho]|   rms[RhoU]|   rms[RhoV]|   rms[RhoE]|          CL|          CD|
+-------------------------------------------------------------------------------------------------------+
|         181|           0|   -1.849240|    0.784883|    0.676481|    3.599365|    1.965259|    0.196300|
|         182|           0|   -1.854559|    0.798482|    0.693272|    3.588140|    1.963987|    0.194203|
|         183|           0|   -1.859362|    0.811018|    0.709064|    3.576619|    1.960403|    0.191793|
|         184|           0|   -1.864321|    0.821805|    0.723273|    3.564274|    1.954603|    0.189105|
|         185|           0|   -1.868817|    0.830917|    0.735262|    3.552215|    1.946713|    0.186184|
|         186|           0|   -1.872434|    0.837773|    0.744844|    3.541205|    1.936890|    0.183076|
|         187|           0|   -1.875213|    0.842320|    0.751782|    3.531773|    1.925315|    0.179831|
|         188|           0|   -1.877328|    0.844414|    0.756033|    3.524115|    1.912174|    0.176496|
|         189|           0|   -1.878947|    0.843749|    0.757385|    3.518306|    1.897671|    0.173119|
|         190|           0|   -1.879991|    0.840339|    0.755895|    3.514703|    1.882024|    0.169746|
+-----------------------------------------------------------------------+
|        File Writing Summary       |              Filename             |
+-----------------------------------------------------------------------+
|SU2 restart                        |solution_flow.dat                  |
|Paraview                           |flow.vtu                           |
|Paraview surface                   |surface_flow.vtu                   |
+-----------------------------------------------------------------------+

Writing the forces breakdown file (forces_breakdown.dat).
+-------------------------------------------------------------------------------------------------------+
|  Inner_Iter|   Time_Iter|    rms[Rho]|   rms[RhoU]|   rms[RhoV]|   rms[RhoE]|          CL|          CD|
+-------------------------------------------------------------------------------------------------------+
|         191|           0|   -1.880789|    0.834036|    0.751454|    3.513004|    1.865463|    0.166425|
|         192|           0|   -1.881649|    0.825145|    0.744138|    3.512919|    1.848214|    0.163200|
|         193|           0|   -1.882629|    0.813515|    0.733629|    3.514177|    1.830526|    0.160119|
|         194|           0|   -1.883952|    0.799060|    0.720153|    3.516345|    1.812622|    0.157218|
|         195|           0|   -1.885814|    0.781714|    0.703689|    3.518947|    1.794735|    0.154534|
|         196|           0|   -1.888469|    0.761476|    0.684338|    3.521473|    1.777094|    0.152102|
|         197|           0|   -1.891394|    0.738557|    0.662209|    3.524397|    1.759908|    0.149946|
|         198|           0|   -1.894887|    0.713289|    0.637486|    3.527090|    1.743371|    0.148086|
|         199|           0|   -1.899026|    0.685991|    0.610621|    3.529251|    1.727669|    0.146539|
|         200|           0|   -1.903979|    0.657095|    0.582250|    3.530397|    1.712971|    0.145317|
+-----------------------------------------------------------------------+
|        File Writing Summary       |              Filename             |
+-----------------------------------------------------------------------+
|SU2 restart                        |solution_flow.dat                  |
|Paraview                           |flow.vtu                           |
|Paraview surface                   |surface_flow.vtu                   |
+-----------------------------------------------------------------------+

Writing the forces breakdown file (forces_breakdown.dat).
+-------------------------------------------------------------------------------------------------------+
|  Inner_Iter|   Time_Iter|    rms[Rho]|   rms[RhoU]|   rms[RhoV]|   rms[RhoE]|          CL|          CD|
+-------------------------------------------------------------------------------------------------------+
|         201|           0|   -1.909615|    0.627363|    0.553424|    3.530533|    1.699427|    0.144428|
|         202|           0|   -1.915864|    0.597745|    0.525614|    3.529535|    1.687178|    0.143877|
|         203|           0|   -1.922647|    0.570381|    0.500497|    3.527409|    1.676354|    0.143665|
|         204|           0|   -1.930280|    0.547151|    0.480164|    3.523660|    1.667063|    0.143788|
|         205|           0|   -1.938487|    0.529978|    0.466594|    3.518470|    1.659390|    0.144236|
|         206|           0|   -1.947163|    0.520232|    0.461155|    3.511865|    1.653408|    0.144999|
|         207|           0|   -1.955814|    0.518300|    0.463978|    3.504216|    1.649161|    0.146060|
|         208|           0|   -1.964356|    0.523708|    0.473832|    3.495484|    1.646677|    0.147403|
|         209|           0|   -1.972956|    0.534826|    0.488816|    3.485385|    1.645957|    0.149004|
|         210|           0|   -1.981294|    0.549972|    0.506873|    3.474253|    1.646989|    0.150837|
+-----------------------------------------------------------------------+
|        File Writing Summary       |              Filename             |
+-----------------------------------------------------------------------+
|SU2 restart                        |solution_flow.dat                  |
|Paraview                           |flow.vtu                           |
|Paraview surface                   |surface_flow.vtu                   |
+-----------------------------------------------------------------------+

Writing the forces breakdown file (forces_breakdown.dat).
+-------------------------------------------------------------------------------------------------------+
|  Inner_Iter|   Time_Iter|    rms[Rho]|   rms[RhoU]|   rms[RhoV]|   rms[RhoE]|          CL|          CD|
+-------------------------------------------------------------------------------------------------------+
|         211|           0|   -1.989199|    0.567080|    0.526054|    3.462344|    1.649740|    0.152874|
|         212|           0|   -1.997086|    0.583461|    0.544764|    3.449195|    1.654157|    0.155088|
|         213|           0|   -2.003745|    0.599266|    0.562109|    3.436284|    1.660168|    0.157444|
|         214|           0|   -2.009006|    0.613717|    0.577444|    3.424094|    1.667688|    0.159912|
|         215|           0|   -2.012910|    0.626200|    0.590366|    3.413006|    1.676612|    0.162455|
|         216|           0|   -2.015614|    0.636452|    0.600632|    3.403224|    1.686817|    0.165040|
|         217|           0|   -2.017399|    0.644314|    0.608137|    3.394863|    1.698176|    0.167631|
|         218|           0|   -2.018615|    0.649846|    0.612840|    3.387979|    1.710543|    0.170194|
|         219|           0|   -2.019325|    0.652850|    0.614664|    3.382819|    1.723762|    0.172695|
|         220|           0|   -2.019850|    0.653115|    0.613770|    3.379246|    1.737670|    0.175102|
+-----------------------------------------------------------------------+
|        File Writing Summary       |              Filename             |
+-----------------------------------------------------------------------+
|SU2 restart                        |solution_flow.dat                  |
|Paraview                           |flow.vtu                           |
|Paraview surface                   |surface_flow.vtu                   |
+-----------------------------------------------------------------------+

Writing the forces breakdown file (forces_breakdown.dat).
+-------------------------------------------------------------------------------------------------------+
|  Inner_Iter|   Time_Iter|    rms[Rho]|   rms[RhoU]|   rms[RhoV]|   rms[RhoE]|          CL|          CD|
+-------------------------------------------------------------------------------------------------------+
|         221|           0|   -2.020505|    0.650722|    0.610133|    3.376960|    1.752102|    0.177383|
|         222|           0|   -2.021256|    0.645538|    0.603731|    3.376020|    1.766883|    0.179508|
|         223|           0|   -2.022043|    0.637582|    0.594530|    3.376528|    1.781841|    0.181452|
|         224|           0|   -2.023078|    0.626823|    0.582349|    3.378146|    1.796798|    0.183189|
|         225|           0|   -2.024727|    0.613525|    0.567434|    3.380194|    1.811586|    0.184698|
|         226|           0|   -2.027179|    0.597924|    0.549903|    3.382239|    1.826032|    0.185960|
|         227|           0|   -2.030571|    0.580151|    0.529873|    3.383909|    1.839975|    0.186961|
|         228|           0|   -2.034867|    0.560402|    0.507539|    3.385009|    1.853264|    0.187688|
|         229|           0|   -2.040151|    0.539136|    0.483283|    3.385298|    1.865755|    0.188135|
|         230|           0|   -2.046371|    0.516949|    0.457439|    3.384681|    1.877309|    0.188295|
+-----------------------------------------------------------------------+
|        File Writing Summary       |              Filename             |
+-----------------------------------------------------------------------+
|SU2 restart                        |solution_flow.dat                  |
|Paraview                           |flow.vtu                           |
|Paraview surface                   |surface_flow.vtu                   |
+-----------------------------------------------------------------------+

Writing the forces breakdown file (forces_breakdown.dat).
+-------------------------------------------------------------------------------------------------------+
|  Inner_Iter|   Time_Iter|    rms[Rho]|   rms[RhoU]|   rms[RhoV]|   rms[RhoE]|          CL|          CD|
+-------------------------------------------------------------------------------------------------------+
|         231|           0|   -2.053574|    0.494689|    0.430732|    3.382927|    1.887810|    0.188169|
|         232|           0|   -2.061736|    0.473459|    0.404199|    3.379933|    1.897151|    0.187758|
|         233|           0|   -2.070637|    0.454158|    0.379256|    3.375783|    1.905239|    0.187069|
|         234|           0|   -2.080364|    0.437989|    0.357425|    3.370196|    1.911997|    0.186111|
|         235|           0|   -2.090788|    0.426078|    0.340288|    3.363247|    1.917372|    0.184897|
|         236|           0|   -2.101415|    0.419224|    0.329055|    3.355286|    1.921320|    0.183444|
|         237|           0|   -2.112216|    0.417791|    0.324424|    3.346206|    1.923826|    0.181770|
|         238|           0|   -2.122896|    0.421476|    0.326262|    3.336154|    1.924888|    0.179899|
|         239|           0|   -2.133074|    0.429586|    0.333702|    3.325470|    1.924521|    0.177854|
|         240|           0|   -2.143091|    0.440995|    0.345322|    3.313740|    1.922757|    0.175662|
+-----------------------------------------------------------------------+
|        File Writing Summary       |              Filename             |
+-----------------------------------------------------------------------+
|SU2 restart                        |solution_flow.dat                  |
|Paraview                           |flow.vtu                           |
|Paraview surface                   |surface_flow.vtu                   |
+-----------------------------------------------------------------------+

Writing the forces breakdown file (forces_breakdown.dat).
+-------------------------------------------------------------------------------------------------------+
|  Inner_Iter|   Time_Iter|    rms[Rho]|   rms[RhoU]|   rms[RhoV]|   rms[RhoE]|          CL|          CD|
+-------------------------------------------------------------------------------------------------------+
|         241|           0|   -2.152626|    0.454218|    0.359510|    3.301223|    1.919650|    0.173351|
|         242|           0|   -2.161515|    0.467957|    0.374856|    3.288129|    1.915264|    0.170949|
|         243|           0|   -2.169479|    0.481350|    0.390163|    3.274843|    1.909677|    0.168486|
|         244|           0|   -2.176856|    0.493590|    0.404574|    3.261105|    1.902980|    0.165993|
|         245|           0|   -2.182901|    0.504477|    0.417500|    3.248017|    1.895279|    0.163498|
|         246|           0|   -2.187601|    0.513581|    0.428474|    3.235924|    1.886687|    0.161032|
|         247|           0|   -2.191033|    0.520531|    0.437232|    3.225160|    1.877330|    0.158624|
|         248|           0|   -2.193552|    0.525146|    0.443561|    3.215765|    1.867339|    0.156304|
|         249|           0|   -2.195202|    0.527405|    0.447271|    3.208147|    1.856852|    0.154098|
|         250|           0|   -2.196377|    0.527381|    0.448325|    3.202211|    1.846006|    0.152032|
+-----------------------------------------------------------------------+
|        File Writing Summary       |              Filename             |
+-----------------------------------------------------------------------+
|SU2 restart                        |solution_flow.dat                  |
|Paraview                           |flow.vtu                           |
|Paraview surface                   |surface_flow.vtu                   |
+-----------------------------------------------------------------------+

Writing the forces breakdown file (forces_breakdown.dat).
+-------------------------------------------------------------------------------------------------------+
|  Inner_Iter|   Time_Iter|    rms[Rho]|   rms[RhoU]|   rms[RhoV]|   rms[RhoE]|          CL|          CD|
+-------------------------------------------------------------------------------------------------------+
|         251|           0|   -2.197817|    0.524977|    0.446653|    3.197424|    1.834945|    0.150129|
|         252|           0|   -2.199098|    0.520069|    0.442317|    3.194361|    1.823809|    0.148410|
|         253|           0|   -2.200048|    0.512623|    0.435270|    3.193186|    1.812736|    0.146894|
|         254|           0|   -2.201085|    0.502625|    0.425504|    3.193345|    1.801864|    0.145597|
|         255|           0|   -2.202519|    0.490069|    0.413034|    3.194320|    1.791322|    0.144532|
|         256|           0|   -2.204448|    0.475061|    0.397898|    3.195884|    1.781238|    0.143710|
|         257|           0|   -2.206954|    0.457611|    0.380148|    3.197757|    1.771726|    0.143137|
|         258|           0|   -2.210049|    0.437840|    0.359955|    3.199708|    1.762900|    0.142819|
|         259|           0|   -2.213948|    0.415966|    0.337363|    3.201282|    1.754859|    0.142757|
|         260|           0|   -2.218774|    0.392240|    0.312655|    3.202134|    1.747691|    0.142950|
+-----------------------------------------------------------------------+
|        File Writing Summary       |              Filename             |
+-----------------------------------------------------------------------+
|SU2 restart                        |solution_flow.dat                  |
|Paraview                           |flow.vtu                           |
|Paraview surface                   |surface_flow.vtu                   |
+-----------------------------------------------------------------------+

Writing the forces breakdown file (forces_breakdown.dat).
+-------------------------------------------------------------------------------------------------------+
|  Inner_Iter|   Time_Iter|    rms[Rho]|   rms[RhoU]|   rms[RhoV]|   rms[RhoE]|          CL|          CD|
+-------------------------------------------------------------------------------------------------------+
|         261|           0|   -2.224515|    0.367051|    0.286319|    3.202131|    1.741472|    0.143393|
|         262|           0|   -2.231164|    0.340923|    0.258915|    3.201133|    1.736270|    0.144079|
|         263|           0|   -2.238591|    0.314561|    0.231433|    3.199114|    1.732133|    0.144999|
|         264|           0|   -2.246774|    0.289008|    0.205100|    3.195962|    1.729101|    0.146139|
|         265|           0|   -2.255595|    0.265488|    0.181539|    3.191648|    1.727197|    0.147485|
|         266|           0|   -2.265020|    0.245337|    0.162404|    3.186087|    1.726434|    0.149020|
|         267|           0|   -2.274836|    0.229730|    0.149150|    3.179355|    1.726810|    0.150725|
|         268|           0|   -2.285349|    0.218923|    0.142692|    3.170950|    1.728308|    0.152578|
|         269|           0|   -2.295719|    0.213558|    0.143059|    3.161618|    1.730902|    0.154558|
|         270|           0|   -2.305555|    0.213668|    0.149388|    3.151680|    1.734552|    0.156641|
+-----------------------------------------------------------------------+
|        File Writing Summary       |              Filename             |
+-----------------------------------------------------------------------+
|SU2 restart                        |solution_flow.dat                  |
|Paraview                           |flow.vtu                           |
|Paraview surface                   |surface_flow.vtu                   |
+-----------------------------------------------------------------------+

Writing the forces breakdown file (forces_breakdown.dat).
+-------------------------------------------------------------------------------------------------------+
|  Inner_Iter|   Time_Iter|    rms[Rho]|   rms[RhoU]|   rms[RhoV]|   rms[RhoE]|          CL|          CD|
+-------------------------------------------------------------------------------------------------------+
|         271|           0|   -2.314954|    0.218423|    0.160222|    3.140968|    1.739208|    0.158804|
|         272|           0|   -2.323425|    0.226990|    0.174113|    3.130016|    1.744805|    0.161021|
|         273|           0|   -2.330859|    0.237990|    0.189534|    3.118942|    1.751274|    0.163268|
|         274|           0|   -2.337141|    0.250336|    0.205232|    3.108036|    1.758533|    0.165518|
|         275|           0|   -2.342197|    0.262905|    0.220225|    3.097638|    1.766493|    0.167747|
|         276|           0|   -2.346168|    0.274683|    0.233921|    3.087761|    1.775054|    0.169929|
|         277|           0|   -2.349292|    0.284867|    0.245730|    3.078460|    1.784117|    0.172041|
|         278|           0|   -2.351554|    0.293260|    0.255317|    3.070124|    1.793577|    0.174059|
|         279|           0|   -2.353013|    0.299746|    0.262645|    3.063012|    1.803325|    0.175963|
|         280|           0|   -2.353878|    0.304182|    0.267546|    3.057233|    1.813248|    0.177730|
+-----------------------------------------------------------------------+
|        File Writing Summary       |              Filename             |
+-----------------------------------------------------------------------+
|SU2 restart                        |solution_flow.dat                  |
|Paraview                           |flow.vtu                           |
|Paraview surface                   |surface_flow.vtu                   |
+-----------------------------------------------------------------------+

Writing the forces breakdown file (forces_breakdown.dat).
+-------------------------------------------------------------------------------------------------------+
|  Inner_Iter|   Time_Iter|    rms[Rho]|   rms[RhoU]|   rms[RhoV]|   rms[RhoE]|          CL|          CD|
+-------------------------------------------------------------------------------------------------------+
|         281|           0|   -2.354440|    0.306462|    0.270029|    3.052704|    1.823238|    0.179343|
|         282|           0|   -2.354913|    0.306421|    0.270080|    3.049334|    1.833181|    0.180783|
|         283|           0|   -2.355433|    0.304136|    0.267708|    3.047097|    1.842971|    0.182038|
|         284|           0|   -2.356292|    0.299674|    0.262932|    3.045680|    1.852502|    0.183093|
|         285|           0|   -2.357572|    0.292927|    0.255848|    3.044943|    1.861672|    0.183939|
|         286|           0|   -2.359537|    0.284034|    0.246519|    3.044479|    1.870389|    0.184567|
|         287|           0|   -2.362261|    0.273069|    0.234988|    3.044121|    1.878565|    0.184972|
|         288|           0|   -2.365878|    0.260170|    0.221433|    3.043632|    1.886119|    0.185152|
|         289|           0|   -2.370380|    0.245590|    0.205978|    3.042937|    1.892979|    0.185107|
|         290|           0|   -2.375859|    0.229680|    0.188950|    3.041723|    1.899080|    0.184838|
+-----------------------------------------------------------------------+
|        File Writing Summary       |              Filename             |
+-----------------------------------------------------------------------+
|SU2 restart                        |solution_flow.dat                  |
|Paraview                           |flow.vtu                           |
|Paraview surface                   |surface_flow.vtu                   |
+-----------------------------------------------------------------------+

Writing the forces breakdown file (forces_breakdown.dat).
+-------------------------------------------------------------------------------------------------------+
|  Inner_Iter|   Time_Iter|    rms[Rho]|   rms[RhoU]|   rms[RhoV]|   rms[RhoE]|          CL|          CD|
+-------------------------------------------------------------------------------------------------------+
|         291|           0|   -2.382282|    0.212834|    0.170712|    3.039889|    1.904368|    0.184351|
|         292|           0|   -2.389684|    0.195455|    0.151635|    3.037255|    1.908802|    0.183653|
|         293|           0|   -2.398020|    0.178124|    0.132314|    3.033733|    1.912351|    0.182753|
|         294|           0|   -2.407168|    0.161512|    0.113462|    3.029319|    1.914992|    0.181664|
|         295|           0|   -2.417178|    0.146451|    0.095901|    3.023825|    1.916719|    0.180400|
|         296|           0|   -2.427946|    0.133563|    0.080460|    3.017231|    1.917531|    0.178976|
|         297|           0|   -2.439194|    0.123567|    0.067884|    3.009690|    1.917444|    0.177412|
|         298|           0|   -2.450705|    0.116825|    0.058796|    3.001277|    1.916473|    0.175724|
|         299|           0|   -2.462403|    0.113500|    0.053499|    2.991905|    1.914656|    0.173934|
|         300|           0|   -2.474277|    0.113297|    0.052013|    2.981356|    1.912028|    0.172062|
+-----------------------------------------------------------------------+
|        File Writing Summary       |              Filename             |
+-----------------------------------------------------------------------+
|SU2 restart                        |solution_flow.dat                  |
|Paraview                           |flow.vtu                           |
|Paraview surface                   |surface_flow.vtu                   |
+-----------------------------------------------------------------------+

Writing the forces breakdown file (forces_breakdown.dat).
+-------------------------------------------------------------------------------------------------------+
|  Inner_Iter|   Time_Iter|    rms[Rho]|   rms[RhoU]|   rms[RhoV]|   rms[RhoE]|          CL|          CD|
+-------------------------------------------------------------------------------------------------------+
|         301|           0|   -2.485956|    0.116104|    0.053954|    2.970031|    1.908644|    0.170131|
|         302|           0|   -2.497169|    0.121380|    0.058676|    2.958103|    1.904560|    0.168161|
|         303|           0|   -2.507722|    0.128410|    0.065397|    2.945716|    1.899846|    0.166178|
|         304|           0|   -2.517502|    0.136538|    0.073359|    2.932993|    1.894571|    0.164202|
|         305|           0|   -2.526151|    0.145113|    0.081807|    2.920383|    1.888814|    0.162257|
|         306|           0|   -2.533676|    0.153493|    0.090100|    2.907954|    1.882655|    0.160363|
|         307|           0|   -2.540227|    0.161201|    0.097687|    2.895740|    1.876180|    0.158543|
|         308|           0|   -2.545768|    0.167798|    0.104193|    2.883996|    1.869475|    0.156814|
|         309|           0|   -2.550267|    0.173072|    0.109359|    2.873146|    1.862629|    0.155197|
|         310|           0|   -2.553798|    0.176797|    0.112915|    2.863435|    1.855730|    0.153707|
+-----------------------------------------------------------------------+
|        File Writing Summary       |              Filename             |
+-----------------------------------------------------------------------+
|SU2 restart                        |solution_flow.dat                  |
|Paraview                           |flow.vtu                           |
|Paraview surface                   |surface_flow.vtu                   |
+-----------------------------------------------------------------------+

Writing the forces breakdown file (forces_breakdown.dat).
+-------------------------------------------------------------------------------------------------------+
|  Inner_Iter|   Time_Iter|    rms[Rho]|   rms[RhoU]|   rms[RhoV]|   rms[RhoE]|          CL|          CD|
+-------------------------------------------------------------------------------------------------------+
|         311|           0|   -2.556544|    0.178770|    0.114695|    2.854978|    1.848867|    0.152361|
|         312|           0|   -2.558750|    0.178896|    0.114495|    2.847810|    1.842123|    0.151171|
|         313|           0|   -2.560660|    0.177079|    0.112258|    2.841883|    1.835579|    0.150150|
|         314|           0|   -2.562491|    0.173340|    0.107958|    2.837130|    1.829316|    0.149307|
|         315|           0|   -2.564435|    0.167589|    0.101596|    2.833437|    1.823404|    0.148648|
|         316|           0|   -2.566675|    0.159791|    0.093151|    2.830633|    1.817913|    0.148181|
|         317|           0|   -2.569341|    0.149989|    0.082610|    2.828559|    1.812902|    0.147906|
|         318|           0|   -2.572538|    0.138191|    0.070047|    2.827029|    1.808427|    0.147826|
|         319|           0|   -2.576334|    0.124409|    0.055524|    2.825834|    1.804533|    0.147937|
|         320|           0|   -2.580767|    0.108761|    0.039148|    2.824807|    1.801261|    0.148238|
+-----------------------------------------------------------------------+
|        File Writing Summary       |              Filename             |
+-----------------------------------------------------------------------+
|SU2 restart                        |solution_flow.dat                  |
|Paraview                           |flow.vtu                           |
|Paraview surface                   |surface_flow.vtu                   |
+-----------------------------------------------------------------------+

Writing the forces breakdown file (forces_breakdown.dat).
+-------------------------------------------------------------------------------------------------------+
|  Inner_Iter|   Time_Iter|    rms[Rho]|   rms[RhoU]|   rms[RhoV]|   rms[RhoE]|          CL|          CD|
+-------------------------------------------------------------------------------------------------------+
|         321|           0|   -2.585870|    0.091302|    0.021023|    2.823755|    1.798639|    0.148720|
|         322|           0|   -2.591692|    0.072268|    0.001383|    2.822467|    1.796694|    0.149377|
|         323|           0|   -2.598207|    0.051884|   -0.019385|    2.820825|    1.795437|    0.150199|
|         324|           0|   -2.605419|    0.030407|   -0.040831|    2.818632|    1.794877|    0.151175|
|         325|           0|   -2.613403|    0.008271|   -0.062367|    2.815663|    1.795011|    0.152292|
|         326|           0|   -2.622131|   -0.014051|   -0.083302|    2.811809|    1.795830|    0.153536|
|         327|           0|   -2.631494|   -0.035979|   -0.102822|    2.807046|    1.797317|    0.154892|
|         328|           0|   -2.641310|   -0.056877|   -0.120050|    2.801424|    1.799447|    0.156343|
|         329|           0|   -2.651441|   -0.076025|   -0.134162|    2.794922|    1.802188|    0.157873|
|         330|           0|   -2.661654|   -0.092702|   -0.144483|    2.787643|    1.805504|    0.159465|
+-----------------------------------------------------------------------+
|        File Writing Summary       |              Filename             |
+-----------------------------------------------------------------------+
|SU2 restart                        |solution_flow.dat                  |
|Paraview                           |flow.vtu                           |
|Paraview surface                   |surface_flow.vtu                   |
+-----------------------------------------------------------------------+

Writing the forces breakdown file (forces_breakdown.dat).
+-------------------------------------------------------------------------------------------------------+
|  Inner_Iter|   Time_Iter|    rms[Rho]|   rms[RhoU]|   rms[RhoV]|   rms[RhoE]|          CL|          CD|
+-------------------------------------------------------------------------------------------------------+
|         331|           0|   -2.671771|   -0.106277|   -0.150625|    2.779660|    1.809349|    0.161099|
|         332|           0|   -2.681595|   -0.116370|   -0.152615|    2.771093|    1.813675|    0.162758|
|         333|           0|   -2.690886|   -0.122851|   -0.150785|    2.762078|    1.818431|    0.164424|
|         334|           0|   -2.699443|   -0.125901|   -0.145809|    2.752796|    1.823557|    0.166077|
|         335|           0|   -2.707234|   -0.125729|   -0.138489|    2.743309|    1.828998|    0.167702|
|         336|           0|   -2.714206|   -0.122901|   -0.129695|    2.733717|    1.834688|    0.169280|
|         337|           0|   -2.720147|   -0.118116|   -0.120209|    2.724347|    1.840566|    0.170797|
|         338|           0|   -2.725125|   -0.112226|   -0.110753|    2.715288|    1.846566|    0.172236|
|         339|           0|   -2.729391|   -0.105994|   -0.101875|    2.706438|    1.852624|    0.173583|
|         340|           0|   -2.732920|   -0.099993|   -0.093947|    2.698058|    1.858677|    0.174827|
+-----------------------------------------------------------------------+
|        File Writing Summary       |              Filename             |
+-----------------------------------------------------------------------+
|SU2 restart                        |solution_flow.dat                  |
|Paraview                           |flow.vtu                           |
|Paraview surface                   |surface_flow.vtu                   |
+-----------------------------------------------------------------------+

Writing the forces breakdown file (forces_breakdown.dat).
+-------------------------------------------------------------------------------------------------------+
|  Inner_Iter|   Time_Iter|    rms[Rho]|   rms[RhoU]|   rms[RhoV]|   rms[RhoE]|          CL|          CD|
+-------------------------------------------------------------------------------------------------------+
|         341|           0|   -2.735814|   -0.094631|   -0.087243|    2.690280|    1.864661|    0.175953|
|         342|           0|   -2.738251|   -0.090223|   -0.081958|    2.683154|    1.870517|    0.176954|
|         343|           0|   -2.740422|   -0.086999|   -0.078204|    2.676707|    1.876186|    0.177820|
|         344|           0|   -2.742429|   -0.085148|   -0.076032|    2.671038|    1.881615|    0.178543|
|         345|           0|   -2.744490|   -0.084764|   -0.075477|    2.666051|    1.886751|    0.179120|
|         346|           0|   -2.746886|   -0.085826|   -0.076487|    2.661524|    1.891549|    0.179545|
|         347|           0|   -2.749763|   -0.088384|   -0.079051|    2.657358|    1.895968|    0.179817|
|         348|           0|   -2.753226|   -0.092413|   -0.083094|    2.653460|    1.899971|    0.179937|
|         349|           0|   -2.757328|   -0.097881|   -0.088499|    2.649760|    1.903525|    0.179904|
|         350|           0|   -2.762193|   -0.104670|   -0.095126|    2.646083|    1.906608|    0.179723|
+-----------------------------------------------------------------------+
[...]
|         905|           0|   -4.442499|   -1.461428|   -1.763958|    1.001078|    1.942141|    0.169062|
|         906|           0|   -4.398826|   -1.615422|   -1.793330|    1.023403|    1.942150|    0.169064|
|         907|           0|   -4.338640|   -1.790855|   -1.796585|    1.107633|    1.942160|    0.169067|
|         908|           0|   -4.272928|   -1.734656|   -1.773813|    1.209336|    1.942171|    0.169069|
|         909|           0|   -4.201602|   -1.482430|   -1.729612|    1.314534|    1.942183|    0.169072|
|         910|           0|   -4.121159|   -1.257995|   -1.665513|    1.423476|    1.942196|    0.169075|
+-----------------------------------------------------------------------+
|        File Writing Summary       |              Filename             |
+-----------------------------------------------------------------------+
|SU2 restart                        |solution_flow.dat                  |
|Paraview                           |flow.vtu                           |
|Paraview surface                   |surface_flow.vtu                   |
+-----------------------------------------------------------------------+

Writing the forces breakdown file (forces_breakdown.dat).
+-------------------------------------------------------------------------------------------------------+
|  Inner_Iter|   Time_Iter|    rms[Rho]|   rms[RhoU]|   rms[RhoV]|   rms[RhoE]|          CL|          CD|
+-------------------------------------------------------------------------------------------------------+
|         911|           0|   -4.092057|   -1.132473|   -1.614047|    1.473696|    1.942209|    0.169078|
|         912|           0|   -4.281908|   -1.238689|   -1.664065|    1.294175|    1.942224|    0.169082|
|         913|           0|   -4.417397|   -1.343564|   -1.711882|    1.133711|    1.942238|    0.169085|
|         914|           0|   -4.460761|   -1.444240|   -1.750077|    1.029451|    1.942254|    0.169089|
|         915|           0|   -4.457407|   -1.538584|   -1.778638|    0.987527|    1.942269|    0.169092|
|         916|           0|   -4.456309|   -1.624161|   -1.799396|    0.970803|    1.942285|    0.169095|
|         917|           0|   -4.472669|   -1.696975|   -1.813812|    0.950012|    1.942302|    0.169099|
|         918|           0|   -4.504753|   -1.753159|   -1.823557|    0.919016|    1.942319|    0.169102|
|         919|           0|   -4.549642|   -1.792101|   -1.830505|    0.877900|    1.942336|    0.169106|
|         920|           0|   -4.573913|   -1.866184|   -1.837226|    0.864079|    1.942353|    0.169109|
+-----------------------------------------------------------------------+
|        File Writing Summary       |              Filename             |
+-----------------------------------------------------------------------+
|SU2 restart                        |solution_flow.dat                  |
|Paraview                           |flow.vtu                           |
|Paraview surface                   |surface_flow.vtu                   |
+-----------------------------------------------------------------------+

Writing the forces breakdown file (forces_breakdown.dat).
+-------------------------------------------------------------------------------------------------------+
|  Inner_Iter|   Time_Iter|    rms[Rho]|   rms[RhoU]|   rms[RhoV]|   rms[RhoE]|          CL|          CD|
+-------------------------------------------------------------------------------------------------------+
|         921|           0|   -4.464473|   -1.885798|   -1.836390|    1.019414|    1.942372|    0.169112|
|         922|           0|   -4.366180|   -1.588278|   -1.809653|    1.158780|    1.942390|    0.169115|
|         923|           0|   -4.302903|   -1.392533|   -1.763618|    1.250363|    1.942408|    0.169118|
|         924|           0|   -4.281831|   -1.284208|   -1.719278|    1.291402|    1.942425|    0.169120|
|         925|           0|   -4.301375|   -1.237548|   -1.692998|    1.285311|    1.942443|    0.169123|
|         926|           0|   -4.350607|   -1.237506|   -1.691334|    1.239081|    1.942460|    0.169125|
|         927|           0|   -4.409024|   -1.274963|   -1.714496|    1.162176|    1.942477|    0.169127|
|         928|           0|   -4.448607|   -1.346355|   -1.757858|    1.070800|    1.942493|    0.169128|
|         929|           0|   -4.446647|   -1.454617|   -1.809275|    1.004825|    1.942509|    0.169130|
|         930|           0|   -4.406085|   -1.610509|   -1.847490|    1.017556|    1.942525|    0.169131|
+-----------------------------------------------------------------------+
|        File Writing Summary       |              Filename             |
+-----------------------------------------------------------------------+
|SU2 restart                        |solution_flow.dat                  |
|Paraview                           |flow.vtu                           |
|Paraview surface                   |surface_flow.vtu                   |
+-----------------------------------------------------------------------+

Writing the forces breakdown file (forces_breakdown.dat).
+-------------------------------------------------------------------------------------------------------+
|  Inner_Iter|   Time_Iter|    rms[Rho]|   rms[RhoU]|   rms[RhoV]|   rms[RhoE]|          CL|          CD|
+-------------------------------------------------------------------------------------------------------+
|         931|           0|   -4.346750|   -1.807834|   -1.853408|    1.097508|    1.942540|    0.169132|
|         932|           0|   -4.281278|   -1.783575|   -1.825950|    1.198387|    1.942555|    0.169132|
|         933|           0|   -4.210316|   -1.515592|   -1.773585|    1.303402|    1.942569|    0.169133|
|         934|           0|   -4.130222|   -1.281081|   -1.700978|    1.412389|    1.942583|    0.169133|
|         935|           0|   -4.075212|   -1.123628|   -1.629579|    1.489546|    1.942596|    0.169133|
|         936|           0|   -4.267231|   -1.230605|   -1.684619|    1.309688|    1.942608|    0.169132|
|         937|           0|   -4.410000|   -1.336906|   -1.740020|    1.146170|    1.942620|    0.169131|
|         938|           0|   -4.460041|   -1.439735|   -1.786067|    1.036093|    1.942631|    0.169130|
|         939|           0|   -4.457558|   -1.537001|   -1.821516|    0.990397|    1.942641|    0.169129|
|         940|           0|   -4.454602|   -1.626351|   -1.847733|    0.973612|    1.942651|    0.169128|
+-----------------------------------------------------------------------+
|        File Writing Summary       |              Filename             |
+-----------------------------------------------------------------------+
|SU2 restart                        |solution_flow.dat                  |
|Paraview                           |flow.vtu                           |
|Paraview surface                   |surface_flow.vtu                   |
+-----------------------------------------------------------------------+

Writing the forces breakdown file (forces_breakdown.dat).
+-------------------------------------------------------------------------------------------------------+
|  Inner_Iter|   Time_Iter|    rms[Rho]|   rms[RhoU]|   rms[RhoV]|   rms[RhoE]|          CL|          CD|
+-------------------------------------------------------------------------------------------------------+
|         941|           0|   -4.469538|   -1.703664|   -1.865970|    0.953368|    1.942660|    0.169126|
|         942|           0|   -4.500279|   -1.764226|   -1.877848|    0.923299|    1.942668|    0.169125|
|         943|           0|   -4.544529|   -1.806490|   -1.885647|    0.882422|    1.942675|    0.169123|
|         944|           0|   -4.583620|   -1.861263|   -1.892231|    0.850731|    1.942682|    0.169121|
|         945|           0|   -4.474471|   -1.941554|   -1.891452|    1.004294|    1.942688|    0.169119|
|         946|           0|   -4.373251|   -1.620511|   -1.858593|    1.148105|    1.942694|    0.169117|
|         947|           0|   -4.305903|   -1.409148|   -1.802261|    1.244921|    1.942698|    0.169115|
|         948|           0|   -4.280711|   -1.292183|   -1.748354|    1.290882|    1.942703|    0.169113|
|         949|           0|   -4.296802|   -1.239736|   -1.715312|    1.289108|    1.942707|    0.169111|
|         950|           0|   -4.344342|   -1.235454|   -1.709855|    1.246230|    1.942711|    0.169109|
+-----------------------------------------------------------------------+
|        File Writing Summary       |              Filename             |
+-----------------------------------------------------------------------+
|SU2 restart                        |solution_flow.dat                  |
|Paraview                           |flow.vtu                           |
|Paraview surface                   |surface_flow.vtu                   |
+-----------------------------------------------------------------------+

Writing the forces breakdown file (forces_breakdown.dat).
+-------------------------------------------------------------------------------------------------------+
|  Inner_Iter|   Time_Iter|    rms[Rho]|   rms[RhoU]|   rms[RhoV]|   rms[RhoE]|          CL|          CD|
+-------------------------------------------------------------------------------------------------------+
|         951|           0|   -4.403949|   -1.269535|   -1.732292|    1.171261|    1.942714|    0.169107|
|         952|           0|   -4.447619|   -1.337817|   -1.778744|    1.079125|    1.942717|    0.169105|
|         953|           0|   -4.450731|   -1.442697|   -1.838007|    1.006492|    1.942721|    0.169103|
|         954|           0|   -4.412993|   -1.594856|   -1.886839|    1.009941|    1.942724|    0.169101|
|         955|           0|   -4.354287|   -1.797746|   -1.899125|    1.086188|    1.942727|    0.169100|
|         956|           0|   -4.288883|   -1.815326|   -1.870049|    1.186894|    1.942730|    0.169098|
|         957|           0|   -4.218296|   -1.545618|   -1.811603|    1.292086|    1.942733|    0.169097|
|         958|           0|   -4.138745|   -1.303798|   -1.732202|    1.401177|    1.942737|    0.169096|
|         959|           0|   -4.059037|   -1.115240|   -1.640080|    1.504248|    1.942739|    0.169095|
|         960|           0|   -4.252473|   -1.222476|   -1.699106|    1.324214|    1.942743|    0.169094|
+-----------------------------------------------------------------------+
|        File Writing Summary       |              Filename             |
+-----------------------------------------------------------------------+
|SU2 restart                        |solution_flow.dat                  |
|Paraview                           |flow.vtu                           |
|Paraview surface                   |surface_flow.vtu                   |
+-----------------------------------------------------------------------+

Writing the forces breakdown file (forces_breakdown.dat).
+-------------------------------------------------------------------------------------------------------+
|  Inner_Iter|   Time_Iter|    rms[Rho]|   rms[RhoU]|   rms[RhoV]|   rms[RhoE]|          CL|          CD|
+-------------------------------------------------------------------------------------------------------+
|         961|           0|   -4.402144|   -1.329402|   -1.761107|    1.157804|    1.942746|    0.169093|
|         962|           0|   -4.459733|   -1.433277|   -1.814283|    1.041835|    1.942750|    0.169093|
|         963|           0|   -4.459590|   -1.532122|   -1.856203|    0.991298|    1.942754|    0.169093|
|         964|           0|   -4.456077|   -1.623841|   -1.887734|    0.973080|    1.942759|    0.169093|
|         965|           0|   -4.469727|   -1.704551|   -1.909914|    0.953319|    1.942763|    0.169093|
|         966|           0|   -4.500271|   -1.769158|   -1.924246|    0.922887|    1.942769|    0.169094|
|         967|           0|   -4.544755|   -1.815230|   -1.933353|    0.881360|    1.942774|    0.169094|
|         968|           0|   -4.598376|   -1.848357|   -1.940082|    0.832738|    1.942779|    0.169095|
|         969|           0|   -4.488182|   -1.987343|   -1.940857|    0.986157|    1.942785|    0.169096|
|         970|           0|   -4.382821|   -1.650352|   -1.902951|    1.135730|    1.942792|    0.169097|
+-----------------------------------------------------------------------+
|        File Writing Summary       |              Filename             |
+-----------------------------------------------------------------------+
|SU2 restart                        |solution_flow.dat                  |
|Paraview                           |flow.vtu                           |
|Paraview surface                   |surface_flow.vtu                   |
+-----------------------------------------------------------------------+

Writing the forces breakdown file (forces_breakdown.dat).
+-------------------------------------------------------------------------------------------------------+
|  Inner_Iter|   Time_Iter|    rms[Rho]|   rms[RhoU]|   rms[RhoV]|   rms[RhoE]|          CL|          CD|
+-------------------------------------------------------------------------------------------------------+
|         971|           0|   -4.310872|   -1.424451|   -1.836894|    1.238205|    1.942799|    0.169099|
|         972|           0|   -4.281260|   -1.299483|   -1.773937|    1.289202|    1.942806|    0.169100|
|         973|           0|   -4.293566|   -1.241657|   -1.734534|    1.291796|    1.942814|    0.169102|
|         974|           0|   -4.338800|   -1.233415|   -1.725408|    1.252395|    1.942822|    0.169103|
|         975|           0|   -4.398168|   -1.264327|   -1.746846|    1.179946|    1.942831|    0.169105|
|         976|           0|   -4.444240|   -1.329699|   -1.795716|    1.088358|    1.942839|    0.169107|
|         977|           0|   -4.451371|   -1.431418|   -1.862113|    1.011320|    1.942849|    0.169109|
|         978|           0|   -4.416646|   -1.579986|   -1.921755|    1.006179|    1.942859|    0.169111|
|         979|           0|   -4.359308|   -1.786214|   -1.941128|    1.077528|    1.942868|    0.169113|
|         980|           0|   -4.294510|   -1.846569|   -1.910159|    1.177196|    1.942878|    0.169115|
+-----------------------------------------------------------------------+
|        File Writing Summary       |              Filename             |
+-----------------------------------------------------------------------+
|SU2 restart                        |solution_flow.dat                  |
|Paraview                           |flow.vtu                           |
|Paraview surface                   |surface_flow.vtu                   |
+-----------------------------------------------------------------------+

Writing the forces breakdown file (forces_breakdown.dat).
+-------------------------------------------------------------------------------------------------------+
|  Inner_Iter|   Time_Iter|    rms[Rho]|   rms[RhoU]|   rms[RhoV]|   rms[RhoE]|          CL|          CD|
+-------------------------------------------------------------------------------------------------------+
|         981|           0|   -4.224791|   -1.576627|   -1.845196|    1.281980|    1.942888|    0.169117|
|         982|           0|   -4.146333|   -1.326729|   -1.759261|    1.390649|    1.942898|    0.169119|
|         983|           0|   -4.062634|   -1.128395|   -1.658910|    1.498534|    1.942908|    0.169120|
|         984|           0|   -4.230378|   -1.209871|   -1.706858|    1.345690|    1.942919|    0.169122|
|         985|           0|   -4.389915|   -1.317402|   -1.774107|    1.175019|    1.942929|    0.169124|
|         986|           0|   -4.459236|   -1.422528|   -1.834564|    1.050059|    1.942939|    0.169126|
|         987|           0|   -4.462341|   -1.523307|   -1.884257|    0.992347|    1.942950|    0.169127|
|         988|           0|   -4.457309|   -1.617850|   -1.923219|    0.972533|    1.942960|    0.169128|
|         989|           0|   -4.468531|   -1.702543|   -1.951829|    0.954000|    1.942970|    0.169130|
|         990|           0|   -4.497113|   -1.771994|   -1.970940|    0.925138|    1.942981|    0.169131|
+-----------------------------------------------------------------------+
|        File Writing Summary       |              Filename             |
+-----------------------------------------------------------------------+
|SU2 restart                        |solution_flow.dat                  |
|Paraview                           |flow.vtu                           |
|Paraview surface                   |surface_flow.vtu                   |
+-----------------------------------------------------------------------+

Writing the forces breakdown file (forces_breakdown.dat).
+-------------------------------------------------------------------------------------------------------+
|  Inner_Iter|   Time_Iter|    rms[Rho]|   rms[RhoU]|   rms[RhoV]|   rms[RhoE]|          CL|          CD|
+-------------------------------------------------------------------------------------------------------+
|         991|           0|   -4.539893|   -1.822765|   -1.983106|    0.885209|    1.942990|    0.169132|
|         992|           0|   -4.594209|   -1.856493|   -1.991607|    0.835640|    1.943000|    0.169132|
|         993|           0|   -4.501024|   -2.040431|   -1.994404|    0.968165|    1.943009|    0.169133|
|         994|           0|   -4.393313|   -1.689918|   -1.951498|    1.121442|    1.943019|    0.169134|
|         995|           0|   -4.317245|   -1.445836|   -1.874449|    1.229248|    1.943028|    0.169134|
|         996|           0|   -4.283020|   -1.311253|   -1.801231|    1.285591|    1.943036|    0.169134|
|         997|           0|   -4.291265|   -1.247007|   -1.754409|    1.292997|    1.943044|    0.169134|
|         998|           0|   -4.333747|   -1.234021|   -1.740439|    1.257712|    1.943052|    0.169134|
|         999|           0|   -4.393082|   -1.261195|   -1.759357|    1.188208|    1.943060|    0.169134|

----------------------------- Solver Exit -------------------------------

Maximum number of iterations reached (ITER = 1000) before convergence.
+-----------------------------------------------------------------------+
|      Convergence Field     |     Value    |   Criterion  |  Converged |
+-----------------------------------------------------------------------+
|                  Cauchy[CD]|   9.29167e-06|       < 1e-10|          No|
+-----------------------------------------------------------------------+
-------------------------------------------------------------------------
+-----------------------------------------------------------------------+
|        File Writing Summary       |              Filename             |
+-----------------------------------------------------------------------+
|SU2 restart                        |solution_flow.dat                  |
|Paraview                           |flow.vtu                           |
|Paraview surface                   |surface_flow.vtu                   |
+-----------------------------------------------------------------------+

Writing the forces breakdown file (forces_breakdown.dat).

------------------------- Solver Postprocessing -------------------------
Deleted CNumerics container.
Deleted CIntegration container.
Deleted CSolver container.
Deleted CIteration container.
Deleted CInterpolator container.
Deleted CInterface container.
Deleted CGeometry container.
Deleted CFreeFormDefBox class.
Deleted CSurfaceMovement class.
Deleted CVolumetricMovement class.
Deleted CConfig container.
Deleted nInst container.
Deleted COutput class.
-------------------------------------------------------------------------

------------------------- Exit Success (SU2_CFD) ------------------------

