
-------------------------------------------------------------------------
|    ___ _   _ ___                                                      |
|   / __| | | |_  )   Release 7.0.3 "Blackbird"                         |
|   \__ \ |_| |/ /                                                      |
|   |___/\___//___|   Suite (Computational Fluid Dynamics Code)         |
|                                                                       |
-------------------------------------------------------------------------
| SU2 Project Website: https://su2code.github.io                        |
|                                                                       |
| The SU2 Project is maintained by the SU2 Foundation                   |
| (http://su2foundation.org)                                            |
-------------------------------------------------------------------------
| Copyright 2012-2020, SU2 Contributors                                 |
|                                                                       |
| SU2 is free software; you can redistribute it and/or                  |
| modify it under the terms of the GNU Lesser General Public            |
| License as published by the Free Software Foundation; either          |
| version 2.1 of the License, or (at your option) any later version.    |
|                                                                       |
| SU2 is distributed in the hope that it will be useful,                |
| but WITHOUT ANY WARRANTY; without even the implied warranty of        |
| MERCHANTABILITY or FITNESS FOR A PARTICULAR PURPOSE. See the GNU      |
| Lesser General Public License for more details.                       |
|                                                                       |
| You should have received a copy of the GNU Lesser General Public      |
| License along with SU2. If not, see <http://www.gnu.org/licenses/>.   |
-------------------------------------------------------------------------

Parsing config file for zone 0

----------------- Physical Case Definition ( Zone 0 ) -------------------
Compressible Euler equations.
Mach number: 0.294.
Angle of attack (AoA): 10 deg, and angle of sideslip (AoS): 0 deg.
No restart solution, use the values at infinity (freestream).
Dimensional simulation.
The reference area is 10 m^2.
The semi-span will be computed using the max y(3D) value.
The reference length is 1 m.
Reference origin for moment evaluation is (0, 0, 0).
Surface(s) where the force coefficients are evaluated: Wing_1.

Surface(s) where the objective function is evaluated: airfoil.
Surface(s) plotted in the output file: Wing_1.
Surface(s) to be analyzed in detail: airfoil.
Surface(s) affected by the design variables: Wing_1.
Input mesh file name: deformed.su2

--------------- Space Numerical Integration ( Zone 0 ) ------------------
Roe (with entropy fix = 0) solver for the flow inviscid terms.
Roe with DDES's FD low-dissipation function.
Second order integration in space, with slope limiter.
Venkatakrishnan slope-limiting method, with constant: 0.05. 
The reference element size is: 1. 
Gradient for upwind reconstruction: Green-Gauss.
Gradient for viscous and source terms: Green-Gauss.

--------------- Time Numerical Integration  ( Zone 0 ) ------------------
Local time stepping (steady state simulation).
Euler implicit method for the flow equations.
FGMRES is used for solving the linear system.
Using a ILU(0) preconditioning.
Convergence criteria of the linear solver: 1e-06.
Max number of linear iterations: 5.
V Multigrid Cycle, with 3 multigrid levels.
Damping factor for the residual restriction: 0.75.
Damping factor for the correction prolongation: 0.75.
No CFL adaptation.
+-------------------------------------------+
|  MG Level| Presmooth|PostSmooth|CorrectSmo|
+-------------------------------------------+
|         0|         1|         0|         0|
|         1|         2|         0|         0|
|         2|         3|         0|         0|
|         3|         3|         0|         0|
+-------------------------------------------+
Courant-Friedrichs-Lewy number:        1

------------------ Convergence Criteria  ( Zone 0 ) ---------------------
Maximum number of solver subiterations: 1000.
Begin convergence monitoring at iteration 10.
Residual minimum value: 1e-8.
Cauchy series min. value: 1e-10.
Number of Cauchy elements: 100.
Begin windowed time average at iteration 15.

-------------------- Output Information ( Zone 0 ) ----------------------
Writing solution files every 10 iterations.
Writing the convergence history file every 1 inner iterations.
Writing the screen convergence history every 1 inner iterations.
The tabular file format is Tecplot (.dat).
Convergence history file name: history.
Forces breakdown file name: forces_breakdown.dat.
Surface file name: surface_flow.
Volume file name: flow.
Restart file name: solution_flow.dat.

------------- Config File Boundary Information ( Zone 0 ) ---------------
+-----------------------------------------------------------------------+
|                        Marker Type|                        Marker Name|
+-----------------------------------------------------------------------+
|                         Euler wall|                             Wing_1|
+-----------------------------------------------------------------------+
|                          Far-field|                           Farfield|
+-----------------------------------------------------------------------+
|                     Symmetry plane|                                  0|
+-----------------------------------------------------------------------+
|           Deformable mesh boundary|                            airfoil|
+-----------------------------------------------------------------------+

-------------------- Output Preprocessing ( Zone 0 ) --------------------
Screen output fields: INNER_ITER, TIME_ITER, RMS_DENSITY, RMS_MOMENTUM-X, RMS_MOMENTUM-Y, RMS_ENERGY, LIFT, DRAG
  Info: Ignoring the following history output groups:
  TIME_ITER
History output group(s): ITER, RMS_RES, AERO_COEFF
Warning: No (valid) fields chosen for convergence monitoring. Convergence monitoring inactive.
Warning: No (valid) fields chosen for time convergence monitoring. Time convergence monitoring inactive.
Volume output fields: COORDINATES, SOLUTION, PRIMITIVE

------------------- Geometry Preprocessing ( Zone 0 ) -------------------
Three dimensional problem.
142678 grid points before partitioning.
739205 volume elements before partitioning.
2 surface markers.
99234 boundary elements in index 0 (Marker = Wing_1).
1280 boundary elements in index 1 (Marker = Farfield).
Executing the partitioning functions.
Building the graph adjacency structure.
Calling ParMETIS... graph partitioning complete (18884 edge cuts).
Distributing ParMETIS coloring.
Rebalancing vertices.
Rebalancing volume element connectivity.
Rebalancing markers and surface elements.
153425 vertices including ghost points. 
767118 interior elements including halo cells. 
767118 tetrahedra.
Establishing MPI communication patterns.
Setting point connectivity.
Renumbering points (Reverse Cuthill McKee Ordering).
Recomputing point connectivity.
Setting element connectivity.
Checking the numerical grid orientation.
Identifying edges and vertices.
Computing centers of gravity.
Setting the control volume structure.
Volume of the computational grid: 587307.
Searching for the closest normal neighbors to the surfaces.
Storing a mapping from global to local point index.
Compute the surface curvature.
Max K: 955.168. Mean K: 12.8886. Standard deviation K: 55.0123.
Checking for periodicity.
Computing mesh quality statistics for the dual control volumes.
+--------------------------------------------------------------+
|           Mesh Quality Metric|        Minimum|        Maximum|
+--------------------------------------------------------------+
|    Orthogonality Angle (deg.)|        46.5842|        85.7726|
|     CV Face Area Aspect Ratio|        1.42434|        36.9586|
|           CV Sub-Volume Ratio|        1.02914|        142.666|
+--------------------------------------------------------------+
Setting the multigrid structure.
+-------------------------------------------+
|  MG Level|       CVs|Aggl. Rate|       CFL|
+-------------------------------------------+
|         0|    153425|    1/1.00|         1|
|         1|     27876|     1/5.5|  0.849577|
|         2|      6802|     1/4.1|  0.796335|
Finding max control volume width.
Communicating number of neighbors.
Semi-span length = 4.99174 m.
Wetted area = 42.1842 m^2.
Area projection in the x-plane = 3.07361 m^2, y-plane = 1.4724 m^2, z-plane = 20.1025 m^2.
Max. coordinate in the x-direction = 1.02239 m, y-direction = 4.99174 m, z-direction = 0.466413 m.
Min. coordinate in the x-direction = -1.02402 m, y-direction = -4.99119 m, z-direction = -0.119513 m.
Checking if Euler & Symmetry markers are straight/plane:
Boundary marker Wing_1 is NOT a single plane.
Boundary marker 0 is a single plane.

-------------------- Solver Preprocessing ( Zone 0 ) --------------------
Inviscid flow: Computing density based on free-stream
temperature and pressure using the ideal gas law.
Force coefficients computed using free-stream values.

-- Models:
+------------------------------------------------------------------------------+
|          Viscosity Model|        Conductivity Model|              Fluid Model|
+------------------------------------------------------------------------------+
|                        -|                         -|             STANDARD_AIR|
+------------------------------------------------------------------------------+
-- Fluid properties:
+------------------------------------------------------------------------------+
|                  Name|    Dim. value|    Ref. value|      Unit|Non-dim. value|
+------------------------------------------------------------------------------+
|          Gas Constant|       287.058|             1|  N.m/kg.K|       287.058|
|      Spec. Heat Ratio|             -|             -|         -|           1.4|
+------------------------------------------------------------------------------+
-- Initial and free-stream conditions:
+------------------------------------------------------------------------------+
|                  Name|    Dim. value|    Ref. value|      Unit|Non-dim. value|
+------------------------------------------------------------------------------+
|       Static Pressure|        101325|             1|        Pa|        101325|
|               Density|       1.22498|             1|    kg/m^3|       1.22498|
|           Temperature|        288.15|             1|         K|        288.15|
|          Total Energy|        211794|             1|   m^2/s^2|        211794|
|            Velocity-X|       98.5274|             1|       m/s|       98.5274|
|            Velocity-Y|             0|             1|       m/s|             0|
|            Velocity-Z|        17.373|             1|       m/s|        17.373|
|    Velocity Magnitude|       100.047|             1|       m/s|       100.047|
+------------------------------------------------------------------------------+
|           Mach Number|             -|             -|         -|         0.294|
+------------------------------------------------------------------------------+
Initialize Jacobian structure (Euler). MG level: 0.
Initialize Jacobian structure (Euler). MG level: 1.
Initialize Jacobian structure (Euler). MG level: 2.

------------------- Numerics Preprocessing ( Zone 0 ) -------------------

----------------- Integration Preprocessing ( Zone 0 ) ------------------

------------------- Iteration Preprocessing ( Zone 0 ) ------------------
Euler/Navier-Stokes/RANS fluid iteration.

------------------------------ Begin Solver -----------------------------

Simulation Run using the Single-zone Driver
+-------------------------------------------------------------------------------------------------------+
|  Inner_Iter|   Time_Iter|    rms[Rho]|   rms[RhoU]|   rms[RhoV]|   rms[RhoE]|          CL|          CD|
+-------------------------------------------------------------------------------------------------------+
|           0|           0|   -1.664335|    0.504034|   -0.372035|    3.804765|    2.087406|    0.938532|
|           1|           0|   -1.772540|    0.413552|   -0.141225|    3.696854|    3.635126|    1.620283|
|           2|           0|   -1.775460|    0.444602|    0.048845|    3.695692|    4.714889|    2.079891|
|           3|           0|   -1.721238|    0.529765|    0.165643|    3.750712|    5.409866|    2.355785|
|           4|           0|   -1.658472|    0.625656|    0.261214|    3.813856|    5.798316|    2.484551|
|           5|           0|   -1.600114|    0.722178|    0.353446|    3.872768|    5.951024|    2.500405|
|           6|           0|   -1.546465|    0.816993|    0.446678|    3.927198|    5.928594|    2.433532|
|           7|           0|   -1.496508|    0.908276|    0.540470|    3.978059|    5.781943|    2.309539|
|           8|           0|   -1.450020|    0.994508|    0.633335|    4.025466|    5.553786|    2.149941|
|           9|           0|   -1.407350|    1.074523|    0.723719|    4.068968|    5.278738|    1.972296|
|          10|           0|   -1.369279|    1.147719|    0.810421|    4.107722|    4.981787|    1.789642|
+-----------------------------------------------------------------------+
|        File Writing Summary       |              Filename             |
+-----------------------------------------------------------------------+
|SU2 restart                        |solution_flow.dat                  |
|Paraview                           |flow.vtu                           |
|Paraview surface                   |surface_flow.vtu                   |
+-----------------------------------------------------------------------+

Writing the forces breakdown file (forces_breakdown.dat).
+-------------------------------------------------------------------------------------------------------+
|  Inner_Iter|   Time_Iter|    rms[Rho]|   rms[RhoU]|   rms[RhoV]|   rms[RhoE]|          CL|          CD|
+-------------------------------------------------------------------------------------------------------+
|          11|           0|   -1.336255|    1.213932|    0.892468|    4.141217|    4.679487|    1.610660|
|          12|           0|   -1.308839|    1.273089|    0.969194|    4.168792|    4.382693|    1.441018|
|          13|           0|   -1.287286|    1.325310|    1.040066|    4.190079|    4.097596|    1.283774|
|          14|           0|   -1.271580|    1.370755|    1.104709|    4.204930|    3.826575|    1.139859|
|          15|           0|   -1.261548|    1.409600|    1.163001|    4.213325|    3.569387|    1.008785|
|          16|           0|   -1.256633|    1.442013|    1.214857|    4.215556|    3.324112|    0.889186|
|          17|           0|   -1.255745|    1.468129|    1.260297|    4.212446|    3.088019|    0.779261|
|          18|           0|   -1.257109|    1.488155|    1.299331|    4.205609|    2.858136|    0.677107|
|          19|           0|   -1.258207|    1.502236|    1.331950|    4.197692|    2.631731|    0.580948|
|          20|           0|   -1.256216|    1.510635|    1.358337|    4.192217|    2.406620|    0.489300|
+-----------------------------------------------------------------------+
|        File Writing Summary       |              Filename             |
+-----------------------------------------------------------------------+
|SU2 restart                        |solution_flow.dat                  |
|Paraview                           |flow.vtu                           |
|Paraview surface                   |surface_flow.vtu                   |
+-----------------------------------------------------------------------+

Writing the forces breakdown file (forces_breakdown.dat).
+-------------------------------------------------------------------------------------------------------+
|  Inner_Iter|   Time_Iter|    rms[Rho]|   rms[RhoU]|   rms[RhoV]|   rms[RhoE]|          CL|          CD|
+-------------------------------------------------------------------------------------------------------+
|          21|           0|   -1.248566|    1.513566|    1.378579|    4.193129|    2.181318|    0.401035|
|          22|           0|   -1.233617|    1.511491|    1.392899|    4.203736|    1.955206|    0.315431|
|          23|           0|   -1.212062|    1.505197|    1.401478|    4.224293|    1.728457|    0.232150|
|          24|           0|   -1.186270|    1.494912|    1.404757|    4.252044|    1.502013|    0.151217|
|          25|           0|   -1.159183|    1.481515|    1.403125|    4.283026|    1.277403|    0.072933|
|          26|           0|   -1.133493|    1.466114|    1.397008|    4.313483|    1.056619|   -0.002191|
|          27|           0|   -1.111214|    1.449796|    1.386856|    4.340560|    0.841941|   -0.073524|
|          28|           0|   -1.093577|    1.433380|    1.373618|    4.362553|    0.635741|   -0.140386|
|          29|           0|   -1.080882|    1.417429|    1.357733|    4.378966|    0.440381|   -0.202095|
|          30|           0|   -1.073296|    1.402367|    1.339854|    4.389432|    0.258073|   -0.258027|
+-----------------------------------------------------------------------+
|        File Writing Summary       |              Filename             |
+-----------------------------------------------------------------------+
|SU2 restart                        |solution_flow.dat                  |
|Paraview                           |flow.vtu                           |
|Paraview surface                   |surface_flow.vtu                   |
+-----------------------------------------------------------------------+

Writing the forces breakdown file (forces_breakdown.dat).
+-------------------------------------------------------------------------------------------------------+
|  Inner_Iter|   Time_Iter|    rms[Rho]|   rms[RhoU]|   rms[RhoV]|   rms[RhoE]|          CL|          CD|
+-------------------------------------------------------------------------------------------------------+
|          31|           0|   -1.069860|    1.388467|    1.320282|    4.394820|    0.090846|   -0.307633|
|          32|           0|   -1.069507|    1.376612|    1.299854|    4.396102|   -0.059519|   -0.350472|
|          33|           0|   -1.070807|    1.368084|    1.279023|    4.394731|   -0.191510|   -0.386222|
|          34|           0|   -1.071225|    1.363322|    1.258847|    4.393135|   -0.303892|   -0.414661|
|          35|           0|   -1.068949|    1.363197|    1.240389|    4.393414|   -0.395717|   -0.435674|
|          36|           0|   -1.063531|    1.368768|    1.227057|    4.396509|   -0.466304|   -0.449246|
|          37|           0|   -1.054677|    1.381489|    1.221763|    4.403219|   -0.515230|   -0.455443|
|          38|           0|   -1.043655|    1.401380|    1.228648|    4.412441|   -0.542302|   -0.454400|
|          39|           0|   -1.031813|    1.426919|    1.248848|    4.423154|   -0.547519|   -0.446305|
|          40|           0|   -1.021112|    1.454619|    1.280240|    4.433164|   -0.531089|   -0.431401|
+-----------------------------------------------------------------------+
|        File Writing Summary       |              Filename             |
+-----------------------------------------------------------------------+
|SU2 restart                        |solution_flow.dat                  |
|Paraview                           |flow.vtu                           |
|Paraview surface                   |surface_flow.vtu                   |
+-----------------------------------------------------------------------+

Writing the forces breakdown file (forces_breakdown.dat).
+-------------------------------------------------------------------------------------------------------+
|  Inner_Iter|   Time_Iter|    rms[Rho]|   rms[RhoU]|   rms[RhoV]|   rms[RhoE]|          CL|          CD|
+-------------------------------------------------------------------------------------------------------+
|          41|           0|   -1.013718|    1.482066|    1.319608|    4.440012|   -0.493451|   -0.409982|
|          42|           0|   -1.010715|    1.508283|    1.362259|    4.442446|   -0.435238|   -0.382384|
|          43|           0|   -1.012246|    1.531265|    1.403611|    4.439891|   -0.357280|   -0.348988|
|          44|           0|   -1.018158|    1.549396|    1.441002|    4.432312|   -0.260611|   -0.310223|
|          45|           0|   -1.028386|    1.562435|    1.472688|    4.419745|   -0.146461|   -0.266563|
|          46|           0|   -1.039610|    1.569326|    1.497511|    4.405323|   -0.016275|   -0.218529|
|          47|           0|   -1.050856|    1.570554|    1.515275|    4.390491|    0.128277|   -0.166700|
|          48|           0|   -1.059602|    1.565524|    1.526164|    4.378210|    0.285348|   -0.111698|
|          49|           0|   -1.062735|    1.554545|    1.530264|    4.372630|    0.452947|   -0.054180|
|          50|           0|   -1.059642|    1.536829|    1.527340|    4.374827|    0.628926|    0.005148|
+-----------------------------------------------------------------------+
|        File Writing Summary       |              Filename             |
+-----------------------------------------------------------------------+
|SU2 restart                        |solution_flow.dat                  |
|Paraview                           |flow.vtu                           |
|Paraview surface                   |surface_flow.vtu                   |
+-----------------------------------------------------------------------+

Writing the forces breakdown file (forces_breakdown.dat).
+-------------------------------------------------------------------------------------------------------+
|  Inner_Iter|   Time_Iter|    rms[Rho]|   rms[RhoU]|   rms[RhoV]|   rms[RhoE]|          CL|          CD|
+-------------------------------------------------------------------------------------------------------+
|          51|           0|   -1.051401|    1.513068|    1.518116|    4.384197|    0.811018|    0.065553|
|          52|           0|   -1.039224|    1.483830|    1.502555|    4.399401|    0.996890|    0.126277|
|          53|           0|   -1.025707|    1.451221|    1.482152|    4.417007|    1.184171|    0.186556|
|          54|           0|   -1.013334|    1.418154|    1.458370|    4.433933|    1.370444|    0.245617|
|          55|           0|   -1.003855|    1.388046|    1.433016|    4.447827|    1.553335|    0.302705|
|          56|           0|   -0.998127|    1.364465|    1.409043|    4.457573|    1.730525|    0.357087|
|          57|           0|   -0.996235|    1.352388|    1.390159|    4.462927|    1.899816|    0.408078|
|          58|           0|   -0.999808|    1.351638|    1.380446|    4.461933|    2.059150|    0.455041|
|          59|           0|   -1.007645|    1.361568|    1.382036|    4.455818|    2.206632|    0.497407|
|          60|           0|   -1.019370|    1.378524|    1.393697|    4.444736|    2.340572|    0.534682|
+-----------------------------------------------------------------------+
|        File Writing Summary       |              Filename             |
+-----------------------------------------------------------------------+
|SU2 restart                        |solution_flow.dat                  |
|Paraview                           |flow.vtu                           |
|Paraview surface                   |surface_flow.vtu                   |
+-----------------------------------------------------------------------+

Writing the forces breakdown file (forces_breakdown.dat).
+-------------------------------------------------------------------------------------------------------+
|  Inner_Iter|   Time_Iter|    rms[Rho]|   rms[RhoU]|   rms[RhoV]|   rms[RhoE]|          CL|          CD|
+-------------------------------------------------------------------------------------------------------+
|          61|           0|   -1.034189|    1.399331|    1.412455|    4.429208|    2.459534|    0.566458|
|          62|           0|   -1.050525|    1.420933|    1.434901|    4.410471|    2.562342|    0.592426|
|          63|           0|   -1.066957|    1.440871|    1.457747|    4.389776|    2.648105|    0.612373|
|          64|           0|   -1.082333|    1.458741|    1.479006|    4.368326|    2.716218|    0.626187|
|          65|           0|   -1.096759|    1.473264|    1.497114|    4.346233|    2.766371|    0.633862|
|          66|           0|   -1.108145|    1.483532|    1.511420|    4.326312|    2.798537|    0.635485|
|          67|           0|   -1.115641|    1.489331|    1.521551|    4.310220|    2.812983|    0.631241|
|          68|           0|   -1.120341|    1.491280|    1.527495|    4.297917|    2.810238|    0.621402|
|          69|           0|   -1.123085|    1.489595|    1.529074|    4.289556|    2.791082|    0.606325|
|          70|           0|   -1.124888|    1.483829|    1.526216|    4.284537|    2.756523|    0.586439|
+-----------------------------------------------------------------------+
|        File Writing Summary       |              Filename             |
+-----------------------------------------------------------------------+
|SU2 restart                        |solution_flow.dat                  |
|Paraview                           |flow.vtu                           |
|Paraview surface                   |surface_flow.vtu                   |
+-----------------------------------------------------------------------+

Writing the forces breakdown file (forces_breakdown.dat).
+-------------------------------------------------------------------------------------------------------+
|  Inner_Iter|   Time_Iter|    rms[Rho]|   rms[RhoU]|   rms[RhoV]|   rms[RhoE]|          CL|          CD|
+-------------------------------------------------------------------------------------------------------+
|          71|           0|   -1.125870|    1.473863|    1.519108|    4.283186|    2.707768|    0.562234|
|          72|           0|   -1.127201|    1.460289|    1.507879|    4.283659|    2.646189|    0.534252|
|          73|           0|   -1.128527|    1.442843|    1.492754|    4.286154|    2.573293|    0.503075|
|          74|           0|   -1.130186|    1.421467|    1.474313|    4.289701|    2.490672|    0.469304|
|          75|           0|   -1.132780|    1.396156|    1.452799|    4.293033|    2.400006|    0.433555|
|          76|           0|   -1.136685|    1.367505|    1.428796|    4.295271|    2.303010|    0.396446|
|          77|           0|   -1.142149|    1.336001|    1.402804|    4.295752|    2.201412|    0.358587|
|          78|           0|   -1.149346|    1.303581|    1.376640|    4.293947|    2.096913|    0.320561|
|          79|           0|   -1.158863|    1.271100|    1.351776|    4.289150|    1.991149|    0.282922|
|          80|           0|   -1.170033|    1.241030|    1.329382|    4.282005|    1.885671|    0.246184|
+-----------------------------------------------------------------------+
|        File Writing Summary       |              Filename             |
+-----------------------------------------------------------------------+
|SU2 restart                        |solution_flow.dat                  |
|Paraview                           |flow.vtu                           |
|Paraview surface                   |surface_flow.vtu                   |
+-----------------------------------------------------------------------+

Writing the forces breakdown file (forces_breakdown.dat).
+-------------------------------------------------------------------------------------------------------+
|  Inner_Iter|   Time_Iter|    rms[Rho]|   rms[RhoU]|   rms[RhoV]|   rms[RhoE]|          CL|          CD|
+-------------------------------------------------------------------------------------------------------+
|          81|           0|   -1.183126|    1.216278|    1.310636|    4.272166|    1.781931|    0.210812|
|          82|           0|   -1.197746|    1.197953|    1.296487|    4.259756|    1.681275|    0.177223|
|          83|           0|   -1.213078|    1.187922|    1.287393|    4.245614|    1.584930|    0.145785|
|          84|           0|   -1.228999|    1.187040|    1.282929|    4.229868|    1.493977|    0.116806|
|          85|           0|   -1.245566|    1.194114|    1.282066|    4.212353|    1.409349|    0.090533|
|          86|           0|   -1.262368|    1.207238|    1.283559|    4.193457|    1.331838|    0.067158|
|          87|           0|   -1.279562|    1.223327|    1.286250|    4.173016|    1.262078|    0.046816|
|          88|           0|   -1.296726|    1.239689|    1.289271|    4.151435|    1.200559|    0.029584|
|          89|           0|   -1.313048|    1.256201|    1.291834|    4.129808|    1.147633|    0.015491|
|          90|           0|   -1.328128|    1.271014|    1.293546|    4.108909|    1.103524|    0.004519|
+-----------------------------------------------------------------------+
|        File Writing Summary       |              Filename             |
+-----------------------------------------------------------------------+
|SU2 restart                        |solution_flow.dat                  |
|Paraview                           |flow.vtu                           |
|Paraview surface                   |surface_flow.vtu                   |
+-----------------------------------------------------------------------+

Writing the forces breakdown file (forces_breakdown.dat).
+-------------------------------------------------------------------------------------------------------+
|  Inner_Iter|   Time_Iter|    rms[Rho]|   rms[RhoU]|   rms[RhoV]|   rms[RhoE]|          CL|          CD|
+-------------------------------------------------------------------------------------------------------+
|          91|           0|   -1.341682|    1.283527|    1.293901|    4.089190|    1.068333|   -0.003393|
|          92|           0|   -1.353406|    1.293222|    1.292765|    4.071181|    1.042050|   -0.008339|
|          93|           0|   -1.363289|    1.300339|    1.290140|    4.055363|    1.024559|   -0.010448|
|          94|           0|   -1.371567|    1.305347|    1.286089|    4.041958|    1.015643|   -0.009874|
|          95|           0|   -1.378841|    1.307602|    1.280770|    4.030475|    1.015000|   -0.006802|
|          96|           0|   -1.386134|    1.307082|    1.274148|    4.019976|    1.022241|   -0.001436|
|          97|           0|   -1.393801|    1.304692|    1.266224|    4.010170|    1.036940|    0.006017|
|          98|           0|   -1.402085|    1.300499|    1.257373|    4.000695|    1.058597|    0.015333|
|          99|           0|   -1.411117|    1.294120|    1.247224|    3.991390|    1.086683|    0.026285|
|         100|           0|   -1.421178|    1.285918|    1.235929|    3.981982|    1.120658|    0.038652|
+-----------------------------------------------------------------------+
|        File Writing Summary       |              Filename             |
+-----------------------------------------------------------------------+
|SU2 restart                        |solution_flow.dat                  |
|Paraview                           |flow.vtu                           |
|Paraview surface                   |surface_flow.vtu                   |
+-----------------------------------------------------------------------+

Writing the forces breakdown file (forces_breakdown.dat).
+-------------------------------------------------------------------------------------------------------+
|  Inner_Iter|   Time_Iter|    rms[Rho]|   rms[RhoU]|   rms[RhoV]|   rms[RhoE]|          CL|          CD|
+-------------------------------------------------------------------------------------------------------+
|         101|           0|   -1.432008|    1.275743|    1.223667|    3.972766|    1.159906|    0.052198|
|         102|           0|   -1.442852|    1.263406|    1.210675|    3.964645|    1.203812|    0.066701|
|         103|           0|   -1.453742|    1.249290|    1.197297|    3.957444|    1.251722|    0.081934|
|         104|           0|   -1.465278|    1.233948|    1.183560|    3.950261|    1.302974|    0.097678|
|         105|           0|   -1.476695|    1.216727|    1.169484|    3.943828|    1.356904|    0.113725|
|         106|           0|   -1.487966|    1.197598|    1.155195|    3.938069|    1.412837|    0.129872|
|         107|           0|   -1.499137|    1.177505|    1.140755|    3.932595|    1.470116|    0.145929|
|         108|           0|   -1.510333|    1.157109|    1.126380|    3.927169|    1.528081|    0.161718|
|         109|           0|   -1.521417|    1.136977|    1.112139|    3.921762|    1.586089|    0.177069|
|         110|           0|   -1.532583|    1.117809|    1.098322|    3.915880|    1.643533|    0.191831|
+-----------------------------------------------------------------------+
|        File Writing Summary       |              Filename             |
+-----------------------------------------------------------------------+
|SU2 restart                        |solution_flow.dat                  |
|Paraview                           |flow.vtu                           |
|Paraview surface                   |surface_flow.vtu                   |
+-----------------------------------------------------------------------+

Writing the forces breakdown file (forces_breakdown.dat).
+-------------------------------------------------------------------------------------------------------+
|  Inner_Iter|   Time_Iter|    rms[Rho]|   rms[RhoU]|   rms[RhoV]|   rms[RhoE]|          CL|          CD|
+-------------------------------------------------------------------------------------------------------+
|         111|           0|   -1.543487|    1.100395|    1.085237|    3.909627|    1.699817|    0.205863|
|         112|           0|   -1.554715|    1.085254|    1.073473|    3.902294|    1.754381|    0.219042|
|         113|           0|   -1.565238|    1.073168|    1.063413|    3.894831|    1.806685|    0.231255|
|         114|           0|   -1.574747|    1.064645|    1.055343|    3.887412|    1.856238|    0.242406|
|         115|           0|   -1.583508|    1.060061|    1.049551|    3.879634|    1.902581|    0.252412|
|         116|           0|   -1.591437|    1.059370|    1.046111|    3.871564|    1.945313|    0.261213|
|         117|           0|   -1.598380|    1.062000|    1.044857|    3.863331|    1.984081|    0.268758|
|         118|           0|   -1.604687|    1.067653|    1.045668|    3.854571|    2.018585|    0.275016|
|         119|           0|   -1.610205|    1.075875|    1.048138|    3.845632|    2.048553|    0.279961|
|         120|           0|   -1.615455|    1.085661|    1.051839|    3.836102|    2.073800|    0.283591|
+-----------------------------------------------------------------------+
|        File Writing Summary       |              Filename             |
+-----------------------------------------------------------------------+
|SU2 restart                        |solution_flow.dat                  |
|Paraview                           |flow.vtu                           |
|Paraview surface                   |surface_flow.vtu                   |
+-----------------------------------------------------------------------+

Writing the forces breakdown file (forces_breakdown.dat).
+-------------------------------------------------------------------------------------------------------+
|  Inner_Iter|   Time_Iter|    rms[Rho]|   rms[RhoU]|   rms[RhoV]|   rms[RhoE]|          CL|          CD|
+-------------------------------------------------------------------------------------------------------+
|         121|           0|   -1.620172|    1.095937|    1.056342|    3.826323|    2.094173|    0.285910|
|         122|           0|   -1.625255|    1.105912|    1.061148|    3.815597|    2.109580|    0.286939|
|         123|           0|   -1.630530|    1.115356|    1.065845|    3.804369|    2.119968|    0.286705|
|         124|           0|   -1.635951|    1.123912|    1.070002|    3.792989|    2.125362|    0.285252|
|         125|           0|   -1.641813|    1.131276|    1.073157|    3.781449|    2.125824|    0.282633|
|         126|           0|   -1.647302|    1.135711|    1.074988|    3.770371|    2.121490|    0.278917|
|         127|           0|   -1.652367|    1.137978|    1.075143|    3.760376|    2.112568|    0.274188|
|         128|           0|   -1.656780|    1.137785|    1.073212|    3.751988|    2.099295|    0.268535|
|         129|           0|   -1.660166|    1.135372|    1.068937|    3.746102|    2.081949|    0.262053|
|         130|           0|   -1.662567|    1.130433|    1.061960|    3.742867|    2.060867|    0.254849|
+-----------------------------------------------------------------------+
|        File Writing Summary       |              Filename             |
+-----------------------------------------------------------------------+
|SU2 restart                        |solution_flow.dat                  |
|Paraview                           |flow.vtu                           |
|Paraview surface                   |surface_flow.vtu                   |
+-----------------------------------------------------------------------+

Writing the forces breakdown file (forces_breakdown.dat).
+-------------------------------------------------------------------------------------------------------+
|  Inner_Iter|   Time_Iter|    rms[Rho]|   rms[RhoU]|   rms[RhoV]|   rms[RhoE]|          CL|          CD|
+-------------------------------------------------------------------------------------------------------+
|         131|           0|   -1.663662|    1.122854|    1.052195|    3.742688|    2.036417|    0.247033|
|         132|           0|   -1.663756|    1.112795|    1.039544|    3.745146|    2.009000|    0.238721|
|         133|           0|   -1.662935|    1.100354|    1.023755|    3.749964|    1.979032|    0.230029|
|         134|           0|   -1.661710|    1.085636|    1.004733|    3.756224|    1.946959|    0.221078|
|         135|           0|   -1.659966|    1.069628|    0.982720|    3.763972|    1.913234|    0.211985|
|         136|           0|   -1.658525|    1.051482|    0.957240|    3.771594|    1.878325|    0.202870|
|         137|           0|   -1.657548|    1.031412|    0.928583|    3.778843|    1.842701|    0.193847|
|         138|           0|   -1.657035|    1.010185|    0.897144|    3.785551|    1.806837|    0.185026|
|         139|           0|   -1.656880|    0.988915|    0.863584|    3.791668|    1.771194|    0.176511|
|         140|           0|   -1.657892|    0.968430|    0.828999|    3.796139|    1.736225|    0.168400|
+-----------------------------------------------------------------------+
|        File Writing Summary       |              Filename             |
+-----------------------------------------------------------------------+
|SU2 restart                        |solution_flow.dat                  |
|Paraview                           |flow.vtu                           |
|Paraview surface                   |surface_flow.vtu                   |
+-----------------------------------------------------------------------+

Writing the forces breakdown file (forces_breakdown.dat).
+-------------------------------------------------------------------------------------------------------+
|  Inner_Iter|   Time_Iter|    rms[Rho]|   rms[RhoU]|   rms[RhoV]|   rms[RhoE]|          CL|          CD|
+-------------------------------------------------------------------------------------------------------+
|         141|           0|   -1.660335|    0.949826|    0.795116|    3.798327|    1.702349|    0.160778|
|         142|           0|   -1.664017|    0.934697|    0.764384|    3.798496|    1.669967|    0.153725|
|         143|           0|   -1.668644|    0.923939|    0.739822|    3.796918|    1.639450|    0.147308|
|         144|           0|   -1.674938|    0.918179|    0.724368|    3.792786|    1.611136|    0.141586|
|         145|           0|   -1.682100|    0.917365|    0.719793|    3.786877|    1.585341|    0.136609|
|         146|           0|   -1.690263|    0.920576|    0.725779|    3.778728|    1.562335|    0.132413|
|         147|           0|   -1.699157|    0.927340|    0.740279|    3.768710|    1.542355|    0.129023|
|         148|           0|   -1.708437|    0.936755|    0.760281|    3.757100|    1.525597|    0.126454|
|         149|           0|   -1.717751|    0.947473|    0.782978|    3.744058|    1.512183|    0.124700|
|         150|           0|   -1.726818|    0.958291|    0.806156|    3.729770|    1.502187|    0.123744|
+-----------------------------------------------------------------------+
|        File Writing Summary       |              Filename             |
+-----------------------------------------------------------------------+
|SU2 restart                        |solution_flow.dat                  |
|Paraview                           |flow.vtu                           |
|Paraview surface                   |surface_flow.vtu                   |
+-----------------------------------------------------------------------+

Writing the forces breakdown file (forces_breakdown.dat).
+-------------------------------------------------------------------------------------------------------+
|  Inner_Iter|   Time_Iter|    rms[Rho]|   rms[RhoU]|   rms[RhoV]|   rms[RhoE]|          CL|          CD|
+-------------------------------------------------------------------------------------------------------+
|         151|           0|   -1.735057|    0.968827|    0.828291|    3.714922|    1.495651|    0.123562|
|         152|           0|   -1.741988|    0.978418|    0.848281|    3.700163|    1.492575|    0.124120|
|         153|           0|   -1.746898|    0.986752|    0.865662|    3.686645|    1.492891|    0.125370|
|         154|           0|   -1.749968|    0.993379|    0.880028|    3.674696|    1.496526|    0.127265|
|         155|           0|   -1.751241|    0.997846|    0.891242|    3.664870|    1.503353|    0.129749|
|         156|           0|   -1.750899|    1.000232|    0.899234|    3.657682|    1.513213|    0.132757|
|         157|           0|   -1.749225|    1.000571|    0.904046|    3.653356|    1.525906|    0.136224|
|         158|           0|   -1.747026|    0.998402|    0.905806|    3.651216|    1.541211|    0.140077|
|         159|           0|   -1.744763|    0.993742|    0.904584|    3.650975|    1.558874|    0.144244|
|         160|           0|   -1.742301|    0.986855|    0.900417|    3.652918|    1.578633|    0.148651|
+-----------------------------------------------------------------------+
|        File Writing Summary       |              Filename             |
+-----------------------------------------------------------------------+
|SU2 restart                        |solution_flow.dat                  |
|Paraview                           |flow.vtu                           |
|Paraview surface                   |surface_flow.vtu                   |
+-----------------------------------------------------------------------+

Writing the forces breakdown file (forces_breakdown.dat).
+-------------------------------------------------------------------------------------------------------+
|  Inner_Iter|   Time_Iter|    rms[Rho]|   rms[RhoU]|   rms[RhoV]|   rms[RhoE]|          CL|          CD|
+-------------------------------------------------------------------------------------------------------+
|         161|           0|   -1.740186|    0.977703|    0.893247|    3.656186|    1.600200|    0.153223|
|         162|           0|   -1.738886|    0.966485|    0.883063|    3.659954|    1.623277|    0.157888|
|         163|           0|   -1.738319|    0.953172|    0.870088|    3.664134|    1.647551|    0.162572|
|         164|           0|   -1.738659|    0.937455|    0.854764|    3.668300|    1.672707|    0.167209|
|         165|           0|   -1.740310|    0.919702|    0.836900|    3.671772|    1.698421|    0.171735|
|         166|           0|   -1.743322|    0.899995|    0.816592|    3.674257|    1.724374|    0.176087|
|         167|           0|   -1.747555|    0.878756|    0.793996|    3.675691|    1.750244|    0.180207|
|         168|           0|   -1.752853|    0.856291|    0.769384|    3.676179|    1.775729|    0.184043|
|         169|           0|   -1.759068|    0.833324|    0.743373|    3.675756|    1.800522|    0.187546|
|         170|           0|   -1.766027|    0.810479|    0.716790|    3.674396|    1.824351|    0.190681|
+-----------------------------------------------------------------------+
|        File Writing Summary       |              Filename             |
+-----------------------------------------------------------------------+
|SU2 restart                        |solution_flow.dat                  |
|Paraview                           |flow.vtu                           |
|Paraview surface                   |surface_flow.vtu                   |
+-----------------------------------------------------------------------+

Writing the forces breakdown file (forces_breakdown.dat).
+-------------------------------------------------------------------------------------------------------+
|  Inner_Iter|   Time_Iter|    rms[Rho]|   rms[RhoU]|   rms[RhoV]|   rms[RhoE]|          CL|          CD|
+-------------------------------------------------------------------------------------------------------+
|         171|           0|   -1.773542|    0.788475|    0.690707|    3.672158|    1.846955|    0.193414|
|         172|           0|   -1.781417|    0.768475|    0.666370|    3.669095|    1.868110|    0.195724|
|         173|           0|   -1.789391|    0.752016|    0.645266|    3.665282|    1.887584|    0.197587|
|         174|           0|   -1.797488|    0.740154|    0.629054|    3.660507|    1.905178|    0.198987|
|         175|           0|   -1.805802|    0.733699|    0.619091|    3.654517|    1.920721|    0.199916|
|         176|           0|   -1.814301|    0.732750|    0.615998|    3.647157|    1.934059|    0.200370|
|         177|           0|   -1.822571|    0.736877|    0.619670|    3.638812|    1.945072|    0.200354|
|         178|           0|   -1.830296|    0.745320|    0.629018|    3.629782|    1.953681|    0.199877|
|         179|           0|   -1.837638|    0.756729|    0.642461|    3.619831|    1.959843|    0.198959|
|         180|           0|   -1.844100|    0.770153|    0.658392|    3.609563|    1.963538|    0.197623|
+-----------------------------------------------------------------------+
|        File Writing Summary       |              Filename             |
+-----------------------------------------------------------------------+
|SU2 restart                        |solution_flow.dat                  |
|Paraview                           |flow.vtu                           |
|Paraview surface                   |surface_flow.vtu                   |
+-----------------------------------------------------------------------+

Writing the forces breakdown file (forces_breakdown.dat).
+-------------------------------------------------------------------------------------------------------+
|  Inner_Iter|   Time_Iter|    rms[Rho]|   rms[RhoU]|   rms[RhoV]|   rms[RhoE]|          CL|          CD|
+-------------------------------------------------------------------------------------------------------+
|         181|           0|   -1.850013|    0.783910|    0.675364|    3.598687|    1.964793|    0.195901|
|         182|           0|   -1.855345|    0.797511|    0.692159|    3.587461|    1.963645|    0.193822|
|         183|           0|   -1.860162|    0.810058|    0.707972|    3.575934|    1.960182|    0.191429|
|         184|           0|   -1.865120|    0.820859|    0.722208|    3.563595|    1.954495|    0.188757|
|         185|           0|   -1.869629|    0.830006|    0.734229|    3.551523|    1.946713|    0.185853|
|         186|           0|   -1.873256|    0.836893|    0.743845|    3.540496|    1.936987|    0.182761|
|         187|           0|   -1.876047|    0.841476|    0.750822|    3.531036|    1.925502|    0.179531|
|         188|           0|   -1.878170|    0.843609|    0.755117|    3.523348|    1.912437|    0.176209|
|         189|           0|   -1.879805|    0.842991|    0.756513|    3.517499|    1.898000|    0.172844|
|         190|           0|   -1.880856|    0.839631|    0.755069|    3.513863|    1.882406|    0.169481|
+-----------------------------------------------------------------------+
|        File Writing Summary       |              Filename             |
+-----------------------------------------------------------------------+
|SU2 restart                        |solution_flow.dat                  |
|Paraview                           |flow.vtu                           |
|Paraview surface                   |surface_flow.vtu                   |
+-----------------------------------------------------------------------+

Writing the forces breakdown file (forces_breakdown.dat).
+-------------------------------------------------------------------------------------------------------+
|  Inner_Iter|   Time_Iter|    rms[Rho]|   rms[RhoU]|   rms[RhoV]|   rms[RhoE]|          CL|          CD|
+-------------------------------------------------------------------------------------------------------+
|         191|           0|   -1.881652|    0.833378|    0.750677|    3.512140|    1.865887|    0.166169|
|         192|           0|   -1.882499|    0.824527|    0.743408|    3.512041|    1.848666|    0.162952|
|         193|           0|   -1.883485|    0.812948|    0.732950|    3.513271|    1.830990|    0.159875|
|         194|           0|   -1.884802|    0.798538|    0.719521|    3.515427|    1.813088|    0.156977|
|         195|           0|   -1.886648|    0.781219|    0.703112|    3.518026|    1.795191|    0.154294|
|         196|           0|   -1.889298|    0.761029|    0.683810|    3.520544|    1.777529|    0.151862|
|         197|           0|   -1.892206|    0.738154|    0.661726|    3.523481|    1.760311|    0.149704|
|         198|           0|   -1.895682|    0.712926|    0.637041|    3.526190|    1.743731|    0.147840|
|         199|           0|   -1.899801|    0.685653|    0.610209|    3.528373|    1.727977|    0.146287|
|         200|           0|   -1.904724|    0.656783|    0.581857|    3.529559|    1.713218|    0.145059|
+-----------------------------------------------------------------------+
|        File Writing Summary       |              Filename             |
+-----------------------------------------------------------------------+
|SU2 restart                        |solution_flow.dat                  |
|Paraview                           |flow.vtu                           |
|Paraview surface                   |surface_flow.vtu                   |
+-----------------------------------------------------------------------+

Writing the forces breakdown file (forces_breakdown.dat).
+-------------------------------------------------------------------------------------------------------+
|  Inner_Iter|   Time_Iter|    rms[Rho]|   rms[RhoU]|   rms[RhoV]|   rms[RhoE]|          CL|          CD|
+-------------------------------------------------------------------------------------------------------+
|         201|           0|   -1.910346|    0.627063|    0.553028|    3.529716|    1.699605|    0.144162|
|         202|           0|   -1.916588|    0.597429|    0.525193|    3.528734|    1.687280|    0.143603|
|         203|           0|   -1.923359|    0.570008|    0.500021|    3.526633|    1.676373|    0.143380|
|         204|           0|   -1.930989|    0.546686|    0.479599|    3.522897|    1.666995|    0.143490|
|         205|           0|   -1.939190|    0.529395|    0.465906|    3.517727|    1.659229|    0.143925|
|         206|           0|   -1.947874|    0.519519|    0.460332|    3.511129|    1.653155|    0.144675|
|         207|           0|   -1.956536|    0.517449|    0.463027|    3.503487|    1.648812|    0.145722|
|         208|           0|   -1.965083|    0.522744|    0.472772|    3.494771|    1.646232|    0.147051|
|         209|           0|   -1.973692|    0.533778|    0.487680|    3.484684|    1.645415|    0.148636|
|         210|           0|   -1.982046|    0.548866|    0.505697|    3.473557|    1.646353|    0.150454|
+-----------------------------------------------------------------------+
|        File Writing Summary       |              Filename             |
+-----------------------------------------------------------------------+
|SU2 restart                        |solution_flow.dat                  |
|Paraview                           |flow.vtu                           |
|Paraview surface                   |surface_flow.vtu                   |
+-----------------------------------------------------------------------+

Writing the forces breakdown file (forces_breakdown.dat).
+-------------------------------------------------------------------------------------------------------+
|  Inner_Iter|   Time_Iter|    rms[Rho]|   rms[RhoU]|   rms[RhoV]|   rms[RhoE]|          CL|          CD|
+-------------------------------------------------------------------------------------------------------+
|         211|           0|   -1.989962|    0.565943|    0.524866|    3.461653|    1.649011|    0.152477|
|         212|           0|   -1.997856|    0.582339|    0.543585|    3.448514|    1.653341|    0.154676|
|         213|           0|   -2.004517|    0.598164|    0.560950|    3.435618|    1.659271|    0.157018|
|         214|           0|   -2.009788|    0.612646|    0.576320|    3.423424|    1.666716|    0.159473|
|         215|           0|   -2.013704|    0.625175|    0.589284|    3.412328|    1.675567|    0.162003|
|         216|           0|   -2.016430|    0.635480|    0.599598|    3.402522|    1.685710|    0.164575|
|         217|           0|   -2.018231|    0.643397|    0.607150|    3.394133|    1.697012|    0.167155|
|         218|           0|   -2.019451|    0.648966|    0.611900|    3.387229|    1.709331|    0.169707|
|         219|           0|   -2.020160|    0.652013|    0.613777|    3.382050|    1.722511|    0.172199|
|         220|           0|   -2.020669|    0.652322|    0.612938|    3.378468|    1.736391|    0.174599|
+-----------------------------------------------------------------------+
|        File Writing Summary       |              Filename             |
+-----------------------------------------------------------------------+
|SU2 restart                        |solution_flow.dat                  |
|Paraview                           |flow.vtu                           |
|Paraview surface                   |surface_flow.vtu                   |
+-----------------------------------------------------------------------+

Writing the forces breakdown file (forces_breakdown.dat).
+-------------------------------------------------------------------------------------------------------+
|  Inner_Iter|   Time_Iter|    rms[Rho]|   rms[RhoU]|   rms[RhoV]|   rms[RhoE]|          CL|          CD|
+-------------------------------------------------------------------------------------------------------+
|         221|           0|   -2.021318|    0.649976|    0.609353|    3.376165|    1.750802|    0.176873|
|         222|           0|   -2.022063|    0.644843|    0.603004|    3.375204|    1.765574|    0.178994|
|         223|           0|   -2.022838|    0.636922|    0.593850|    3.375699|    1.780530|    0.180934|
|         224|           0|   -2.023857|    0.626208|    0.581726|    3.377312|    1.795498|    0.182670|
|         225|           0|   -2.025479|    0.612959|    0.566869|    3.379375|    1.810301|    0.184178|
|         226|           0|   -2.027908|    0.597404|    0.549397|    3.381431|    1.824774|    0.185442|
|         227|           0|   -2.031275|    0.579677|    0.529423|    3.383115|    1.838750|    0.186445|
|         228|           0|   -2.035555|    0.559970|    0.507147|    3.384223|    1.852081|    0.187177|
|         229|           0|   -2.040814|    0.538736|    0.482940|    3.384533|    1.864619|    0.187629|
|         230|           0|   -2.047037|    0.516579|    0.457144|    3.383908|    1.876230|    0.187797|
+-----------------------------------------------------------------------+
|        File Writing Summary       |              Filename             |
+-----------------------------------------------------------------------+
|SU2 restart                        |solution_flow.dat                  |
|Paraview                           |flow.vtu                           |
|Paraview surface                   |surface_flow.vtu                   |
+-----------------------------------------------------------------------+

Writing the forces breakdown file (forces_breakdown.dat).
+-------------------------------------------------------------------------------------------------------+
|  Inner_Iter|   Time_Iter|    rms[Rho]|   rms[RhoU]|   rms[RhoV]|   rms[RhoE]|          CL|          CD|
+-------------------------------------------------------------------------------------------------------+
|         231|           0|   -2.054226|    0.494332|    0.430475|    3.382170|    1.886792|    0.187679|
|         232|           0|   -2.062377|    0.473097|    0.403956|    3.379189|    1.896198|    0.187279|
|         233|           0|   -2.071267|    0.453768|    0.378996|    3.375057|    1.904353|    0.186600|
|         234|           0|   -2.080985|    0.437551|    0.357122|    3.369489|    1.911183|    0.185654|
|         235|           0|   -2.091408|    0.425567|    0.339912|    3.362551|    1.916628|    0.184452|
|         236|           0|   -2.102025|    0.418642|    0.328574|    3.354618|    1.920649|    0.183011|
|         237|           0|   -2.112831|    0.417120|    0.323819|    3.345555|    1.923227|    0.181351|
|         238|           0|   -2.123502|    0.420728|    0.325530|    3.335534|    1.924361|    0.179494|
|         239|           0|   -2.133688|    0.428768|    0.332868|    3.324867|    1.924062|    0.177462|
|         240|           0|   -2.143706|    0.440126|    0.344413|    3.313162|    1.922367|    0.175283|
+-----------------------------------------------------------------------+
|        File Writing Summary       |              Filename             |
+-----------------------------------------------------------------------+
|SU2 restart                        |solution_flow.dat                  |
|Paraview                           |flow.vtu                           |
|Paraview surface                   |surface_flow.vtu                   |
+-----------------------------------------------------------------------+

Writing the forces breakdown file (forces_breakdown.dat).
+-------------------------------------------------------------------------------------------------------+
|  Inner_Iter|   Time_Iter|    rms[Rho]|   rms[RhoU]|   rms[RhoV]|   rms[RhoE]|          CL|          CD|
+-------------------------------------------------------------------------------------------------------+
|         241|           0|   -2.153246|    0.453319|    0.358551|    3.300665|    1.919323|    0.172985|
|         242|           0|   -2.162149|    0.467055|    0.373870|    3.287584|    1.914996|    0.170596|
|         243|           0|   -2.170132|    0.480456|    0.389181|    3.274304|    1.909464|    0.168145|
|         244|           0|   -2.177538|    0.492705|    0.403613|    3.260556|    1.902819|    0.165663|
|         245|           0|   -2.183586|    0.503618|    0.416558|    3.247477|    1.895165|    0.163179|
|         246|           0|   -2.188279|    0.512715|    0.427572|    3.235390|    1.886614|    0.160724|
|         247|           0|   -2.191729|    0.519715|    0.436366|    3.224608|    1.877292|    0.158326|
|         248|           0|   -2.194259|    0.524388|    0.442745|    3.215194|    1.867331|    0.156015|
|         249|           0|   -2.195918|    0.526696|    0.446510|    3.207547|    1.856865|    0.153816|
|         250|           0|   -2.197087|    0.526723|    0.447619|    3.201594|    1.846036|    0.151757|
+-----------------------------------------------------------------------+
|        File Writing Summary       |              Filename             |
+-----------------------------------------------------------------------+
|SU2 restart                        |solution_flow.dat                  |
|Paraview                           |flow.vtu                           |
|Paraview surface                   |surface_flow.vtu                   |
+-----------------------------------------------------------------------+

Writing the forces breakdown file (forces_breakdown.dat).
+-------------------------------------------------------------------------------------------------------+
|  Inner_Iter|   Time_Iter|    rms[Rho]|   rms[RhoU]|   rms[RhoV]|   rms[RhoE]|          CL|          CD|
+-------------------------------------------------------------------------------------------------------+
|         251|           0|   -2.198421|    0.524371|    0.446006|    3.196885|    1.834982|    0.149859|
|         252|           0|   -2.199754|    0.519520|    0.441728|    3.193733|    1.823847|    0.148145|
|         253|           0|   -2.200741|    0.512129|    0.434743|    3.192486|    1.812767|    0.146632|
|         254|           0|   -2.201765|    0.502192|    0.425048|    3.192632|    1.801884|    0.145337|
|         255|           0|   -2.203186|    0.489701|    0.412654|    3.193595|    1.791324|    0.144272|
|         256|           0|   -2.205095|    0.474761|    0.397596|    3.195156|    1.781218|    0.143449|
|         257|           0|   -2.207596|    0.457381|    0.379925|    3.197009|    1.771678|    0.142874|
|         258|           0|   -2.210678|    0.437675|    0.359813|    3.198958|    1.762820|    0.142553|
|         259|           0|   -2.214561|    0.415868|    0.337302|    3.200536|    1.754742|    0.142486|
|         260|           0|   -2.219360|    0.392190|    0.312670|    3.201410|    1.747536|    0.142674|
+-----------------------------------------------------------------------+
|        File Writing Summary       |              Filename             |
+-----------------------------------------------------------------------+
|SU2 restart                        |solution_flow.dat                  |
|Paraview                           |flow.vtu                           |
|Paraview surface                   |surface_flow.vtu                   |
+-----------------------------------------------------------------------+

Writing the forces breakdown file (forces_breakdown.dat).
+-------------------------------------------------------------------------------------------------------+
|  Inner_Iter|   Time_Iter|    rms[Rho]|   rms[RhoU]|   rms[RhoV]|   rms[RhoE]|          CL|          CD|
+-------------------------------------------------------------------------------------------------------+
|         261|           0|   -2.225074|    0.367047|    0.286396|    3.201434|    1.741276|    0.143111|
|         262|           0|   -2.231700|    0.340961|    0.259047|    3.200461|    1.736029|    0.143790|
|         263|           0|   -2.239098|    0.314608|    0.231583|    3.198479|    1.731846|    0.144701|
|         264|           0|   -2.247264|    0.289046|    0.205227|    3.195354|    1.728766|    0.145832|
|         265|           0|   -2.256058|    0.265475|    0.181602|    3.191085|    1.726814|    0.147168|
|         266|           0|   -2.265460|    0.245239|    0.162357|    3.185561|    1.726001|    0.148693|
|         267|           0|   -2.275263|    0.229523|    0.148949|    3.178862|    1.726326|    0.150386|
|         268|           0|   -2.285808|    0.218539|    0.142311|    3.170445|    1.727774|    0.152228|
|         269|           0|   -2.296163|    0.213068|    0.142501|    3.161156|    1.730320|    0.154196|
|         270|           0|   -2.305996|    0.213193|    0.148706|    3.151254|    1.733925|    0.156268|
+-----------------------------------------------------------------------+
|        File Writing Summary       |              Filename             |
+-----------------------------------------------------------------------+
|SU2 restart                        |solution_flow.dat                  |
|Paraview                           |flow.vtu                           |
|Paraview surface                   |surface_flow.vtu                   |
+-----------------------------------------------------------------------+

Writing the forces breakdown file (forces_breakdown.dat).
+-------------------------------------------------------------------------------------------------------+
|  Inner_Iter|   Time_Iter|    rms[Rho]|   rms[RhoU]|   rms[RhoV]|   rms[RhoE]|          CL|          CD|
+-------------------------------------------------------------------------------------------------------+
|         271|           0|   -2.315370|    0.217826|    0.159425|    3.140591|    1.738539|    0.158421|
|         272|           0|   -2.323850|    0.226305|    0.173240|    3.129656|    1.744098|    0.160627|
|         273|           0|   -2.331296|    0.237236|    0.188621|    3.118595|    1.750532|    0.162864|
|         274|           0|   -2.337599|    0.249529|    0.204316|    3.107684|    1.757759|    0.165105|
|         275|           0|   -2.342643|    0.262064|    0.219328|    3.097301|    1.765693|    0.167326|
|         276|           0|   -2.346618|    0.273865|    0.233051|    3.087435|    1.774235|    0.169501|
|         277|           0|   -2.349683|    0.284058|    0.244880|    3.078206|    1.783284|    0.171607|
|         278|           0|   -2.351961|    0.292506|    0.254533|    3.069854|    1.792733|    0.173620|
|         279|           0|   -2.353433|    0.299063|    0.261933|    3.062724|    1.802475|    0.175518|
|         280|           0|   -2.354293|    0.303564|    0.266904|    3.056939|    1.812394|    0.177281|
+-----------------------------------------------------------------------+
|        File Writing Summary       |              Filename             |
+-----------------------------------------------------------------------+
|SU2 restart                        |solution_flow.dat                  |
|Paraview                           |flow.vtu                           |
|Paraview surface                   |surface_flow.vtu                   |
+-----------------------------------------------------------------------+

Writing the forces breakdown file (forces_breakdown.dat).
+-------------------------------------------------------------------------------------------------------+
|  Inner_Iter|   Time_Iter|    rms[Rho]|   rms[RhoU]|   rms[RhoV]|   rms[RhoE]|          CL|          CD|
+-------------------------------------------------------------------------------------------------------+
|         281|           0|   -2.354839|    0.305913|    0.269460|    3.052410|    1.822383|    0.178890|
|         282|           0|   -2.355308|    0.305949|    0.269589|    3.049022|    1.832328|    0.180328|
|         283|           0|   -2.355838|    0.303743|    0.267296|    3.046743|    1.842123|    0.181580|
|         284|           0|   -2.356675|    0.299338|    0.262604|    3.045316|    1.851663|    0.182634|
|         285|           0|   -2.357943|    0.292654|    0.255601|    3.044557|    1.860848|    0.183479|
|         286|           0|   -2.359889|    0.283831|    0.246358|    3.044084|    1.869582|    0.184108|
|         287|           0|   -2.362586|    0.272929|    0.234911|    3.043723|    1.877778|    0.184515|
|         288|           0|   -2.366190|    0.260100|    0.221438|    3.043237|    1.885355|    0.184698|
|         289|           0|   -2.370683|    0.245574|    0.206063|    3.042529|    1.892240|    0.184656|
|         290|           0|   -2.376146|    0.229712|    0.189111|    3.041314|    1.898368|    0.184391|
+-----------------------------------------------------------------------+
|        File Writing Summary       |              Filename             |
+-----------------------------------------------------------------------+
|SU2 restart                        |solution_flow.dat                  |
|Paraview                           |flow.vtu                           |
|Paraview surface                   |surface_flow.vtu                   |
+-----------------------------------------------------------------------+

Writing the forces breakdown file (forces_breakdown.dat).
+-------------------------------------------------------------------------------------------------------+
|  Inner_Iter|   Time_Iter|    rms[Rho]|   rms[RhoU]|   rms[RhoV]|   rms[RhoE]|          CL|          CD|
+-------------------------------------------------------------------------------------------------------+
|         291|           0|   -2.382548|    0.212903|    0.170938|    3.039490|    1.903684|    0.183908|
|         292|           0|   -2.389930|    0.195557|    0.151915|    3.036869|    1.908147|    0.183215|
|         293|           0|   -2.398229|    0.178246|    0.132627|    3.033384|    1.911725|    0.182321|
|         294|           0|   -2.407349|    0.161634|    0.113786|    3.029004|    1.914398|    0.181238|
|         295|           0|   -2.417335|    0.146552|    0.096211|    3.023541|    1.916155|    0.179980|
|         296|           0|   -2.428082|    0.133639|    0.080721|    3.016984|    1.916999|    0.178564|
|         297|           0|   -2.439316|    0.123576|    0.068075|    3.009471|    1.916939|    0.177006|
|         298|           0|   -2.450811|    0.116745|    0.058897|    3.001090|    1.915998|    0.175325|
|         299|           0|   -2.462494|    0.113323|    0.053491|    2.991758|    1.914206|    0.173542|
|         300|           0|   -2.474397|    0.113011|    0.051895|    2.981198|    1.911607|    0.171678|
+-----------------------------------------------------------------------+
|        File Writing Summary       |              Filename             |
+-----------------------------------------------------------------------+
|SU2 restart                        |solution_flow.dat                  |
|Paraview                           |flow.vtu                           |
|Paraview surface                   |surface_flow.vtu                   |
+-----------------------------------------------------------------------+

Writing the forces breakdown file (forces_breakdown.dat).
+-------------------------------------------------------------------------------------------------------+
|  Inner_Iter|   Time_Iter|    rms[Rho]|   rms[RhoU]|   rms[RhoV]|   rms[RhoE]|          CL|          CD|
+-------------------------------------------------------------------------------------------------------+
|         301|           0|   -2.486049|    0.115747|    0.053719|    2.969937|    1.908247|    0.169753|
|         302|           0|   -2.497259|    0.120965|    0.058340|    2.958046|    1.904187|    0.167792|
|         303|           0|   -2.507801|    0.127955|    0.064995|    2.945705|    1.899493|    0.165815|
|         304|           0|   -2.517580|    0.136056|    0.072918|    2.933016|    1.894236|    0.163845|
|         305|           0|   -2.526235|    0.144615|    0.081353|    2.920431|    1.888494|    0.161906|
|         306|           0|   -2.533760|    0.153009|    0.089652|    2.908032|    1.882349|    0.160019|
|         307|           0|   -2.540312|    0.160740|    0.097268|    2.895844|    1.875885|    0.158204|
|         308|           0|   -2.545858|    0.167372|    0.103815|    2.884116|    1.869188|    0.156481|
|         309|           0|   -2.550350|    0.172698|    0.109030|    2.873276|    1.862348|    0.154868|
|         310|           0|   -2.553890|    0.176483|    0.112650|    2.863551|    1.855453|    0.153382|
+-----------------------------------------------------------------------+
|        File Writing Summary       |              Filename             |
+-----------------------------------------------------------------------+
|SU2 restart                        |solution_flow.dat                  |
|Paraview                           |flow.vtu                           |
|Paraview surface                   |surface_flow.vtu                   |
+-----------------------------------------------------------------------+

Writing the forces breakdown file (forces_breakdown.dat).
+-------------------------------------------------------------------------------------------------------+
|  Inner_Iter|   Time_Iter|    rms[Rho]|   rms[RhoU]|   rms[RhoV]|   rms[RhoE]|          CL|          CD|
+-------------------------------------------------------------------------------------------------------+
|         311|           0|   -2.556660|    0.178505|    0.114504|    2.855052|    1.848592|    0.152040|
|         312|           0|   -2.558878|    0.178702|    0.114379|    2.847849|    1.841846|    0.150853|
|         313|           0|   -2.560780|    0.176959|    0.112221|    2.841901|    1.835300|    0.149834|
|         314|           0|   -2.562609|    0.173288|    0.108002|    2.837109|    1.829029|    0.148992|
|         315|           0|   -2.564554|    0.167618|    0.101723|    2.833372|    1.823109|    0.148335|
|         316|           0|   -2.566783|    0.159907|    0.093367|    2.830539|    1.817606|    0.147867|
|         317|           0|   -2.569433|    0.150195|    0.082916|    2.828443|    1.812583|    0.147592|
|         318|           0|   -2.572610|    0.138470|    0.070435|    2.826898|    1.808093|    0.147510|
|         319|           0|   -2.576381|    0.124762|    0.055993|    2.825698|    1.804185|    0.147620|
|         320|           0|   -2.580776|    0.109176|    0.039698|    2.824684|    1.800897|    0.147918|
+-----------------------------------------------------------------------+
|        File Writing Summary       |              Filename             |
+-----------------------------------------------------------------------+
|SU2 restart                        |solution_flow.dat                  |
|Paraview                           |flow.vtu                           |
|Paraview surface                   |surface_flow.vtu                   |
+-----------------------------------------------------------------------+

Writing the forces breakdown file (forces_breakdown.dat).
+-------------------------------------------------------------------------------------------------------+
|  Inner_Iter|   Time_Iter|    rms[Rho]|   rms[RhoU]|   rms[RhoV]|   rms[RhoE]|          CL|          CD|
+-------------------------------------------------------------------------------------------------------+
|         321|           0|   -2.585845|    0.091780|    0.021652|    2.823648|    1.798259|    0.148397|
|         322|           0|   -2.591632|    0.072807|    0.002080|    2.822381|    1.796296|    0.149051|
|         323|           0|   -2.598112|    0.052478|   -0.018633|    2.820767|    1.795022|    0.149869|
|         324|           0|   -2.605291|    0.031045|   -0.040043|    2.818604|    1.794443|    0.150841|
|         325|           0|   -2.613230|    0.008938|   -0.061566|    2.815685|    1.794560|    0.151954|
|         326|           0|   -2.621918|   -0.013368|   -0.082509|    2.811877|    1.795361|    0.153194|
|         327|           0|   -2.631242|   -0.035304|   -0.102069|    2.807165|    1.796831|    0.154545|
|         328|           0|   -2.641030|   -0.056235|   -0.119377|    2.801586|    1.798945|    0.155992|
|         329|           0|   -2.651128|   -0.075446|   -0.133592|    2.795136|    1.801671|    0.157517|
|         330|           0|   -2.661317|   -0.092202|   -0.144037|    2.787906|    1.804971|    0.159104|
+-----------------------------------------------------------------------+
|        File Writing Summary       |              Filename             |
+-----------------------------------------------------------------------+
|SU2 restart                        |solution_flow.dat                  |
|Paraview                           |flow.vtu                           |
|Paraview surface                   |surface_flow.vtu                   |
+-----------------------------------------------------------------------+

Writing the forces breakdown file (forces_breakdown.dat).
+-------------------------------------------------------------------------------------------------------+
|  Inner_Iter|   Time_Iter|    rms[Rho]|   rms[RhoU]|   rms[RhoV]|   rms[RhoE]|          CL|          CD|
+-------------------------------------------------------------------------------------------------------+
|         331|           0|   -2.671428|   -0.105882|   -0.150324|    2.779956|    1.808803|    0.160733|
|         332|           0|   -2.681244|   -0.116089|   -0.152451|    2.771427|    1.813117|    0.162388|
|         333|           0|   -2.690537|   -0.122693|   -0.150737|    2.762439|    1.817861|    0.164049|
|         334|           0|   -2.699096|   -0.125857|   -0.145852|    2.753187|    1.822978|    0.165698|
|         335|           0|   -2.706884|   -0.125753|   -0.138595|    2.743736|    1.828411|    0.167319|
|         336|           0|   -2.713866|   -0.122972|   -0.129835|    2.734163|    1.834094|    0.168894|
|         337|           0|   -2.719823|   -0.118227|   -0.120354|    2.724798|    1.839967|    0.170406|
|         338|           0|   -2.724812|   -0.112332|   -0.110884|    2.715746|    1.845963|    0.171842|
|         339|           0|   -2.729090|   -0.106079|   -0.101973|    2.706895|    1.852019|    0.173186|
|         340|           0|   -2.732619|   -0.100042|   -0.093999|    2.698515|    1.858071|    0.174427|
+-----------------------------------------------------------------------+
|        File Writing Summary       |              Filename             |
+-----------------------------------------------------------------------+
|SU2 restart                        |solution_flow.dat                  |
|Paraview                           |flow.vtu                           |
|Paraview surface                   |surface_flow.vtu                   |
+-----------------------------------------------------------------------+

Writing the forces breakdown file (forces_breakdown.dat).
+-------------------------------------------------------------------------------------------------------+
|  Inner_Iter|   Time_Iter|    rms[Rho]|   rms[RhoU]|   rms[RhoV]|   rms[RhoE]|          CL|          CD|
+-------------------------------------------------------------------------------------------------------+
|         341|           0|   -2.735521|   -0.094634|   -0.087239|    2.690720|    1.864056|    0.175551|
|         342|           0|   -2.737962|   -0.090176|   -0.081893|    2.683575|    1.869914|    0.176550|
|         343|           0|   -2.740132|   -0.086899|   -0.078075|    2.677105|    1.875587|    0.177414|
|         344|           0|   -2.742117|   -0.085017|   -0.075840|    2.671434|    1.881019|    0.178137|
|         345|           0|   -2.744139|   -0.084594|   -0.075232|    2.666458|    1.886162|    0.178713|
|         346|           0|   -2.746509|   -0.085598|   -0.076187|    2.661927|    1.890966|    0.179137|
|         347|           0|   -2.749366|   -0.088080|   -0.078703|    2.657748|    1.895392|    0.179410|
|         348|           0|   -2.752804|   -0.092042|   -0.082692|    2.653847|    1.899402|    0.179529|
|         349|           0|   -2.756882|   -0.097433|   -0.088044|    2.650146|    1.902965|    0.179497|
|         350|           0|   -2.761721|   -0.104177|   -0.094627|    2.646468|    1.906054|    0.179317|
+-----------------------------------------------------------------------+
[...]
|         905|           0|   -4.433060|   -1.296472|   -1.697388|    1.124076|    1.941614|    0.168679|
|         906|           0|   -4.458840|   -1.377801|   -1.737861|    1.035248|    1.941623|    0.168681|
|         907|           0|   -4.440037|   -1.498001|   -1.778874|    0.992803|    1.941634|    0.168683|
|         908|           0|   -4.388957|   -1.667051|   -1.802881|    1.036311|    1.941644|    0.168686|
|         909|           0|   -4.324630|   -1.822783|   -1.799290|    1.130886|    1.941657|    0.168689|
|         910|           0|   -4.254867|   -1.669805|   -1.769530|    1.237468|    1.941670|    0.168692|
+-----------------------------------------------------------------------+
|        File Writing Summary       |              Filename             |
+-----------------------------------------------------------------------+
|SU2 restart                        |solution_flow.dat                  |
|Paraview                           |flow.vtu                           |
|Paraview surface                   |surface_flow.vtu                   |
+-----------------------------------------------------------------------+

Writing the forces breakdown file (forces_breakdown.dat).
+-------------------------------------------------------------------------------------------------------+
|  Inner_Iter|   Time_Iter|    rms[Rho]|   rms[RhoU]|   rms[RhoV]|   rms[RhoE]|          CL|          CD|
+-------------------------------------------------------------------------------------------------------+
|         911|           0|   -4.178336|   -1.410931|   -1.717408|    1.346975|    1.941684|    0.168695|
|         912|           0|   -4.093316|   -1.196111|   -1.644835|    1.458832|    1.941697|    0.168698|
|         913|           0|   -4.155942|   -1.171126|   -1.635690|    1.414290|    1.941713|    0.168702|
|         914|           0|   -4.336921|   -1.277401|   -1.686281|    1.236895|    1.941728|    0.168705|
|         915|           0|   -4.446413|   -1.381417|   -1.731388|    1.088864|    1.941744|    0.168709|
|         916|           0|   -4.469755|   -1.480529|   -1.766486|    1.004411|    1.941760|    0.168712|
|         917|           0|   -4.463868|   -1.572687|   -1.792496|    0.973934|    1.941777|    0.168716|
|         918|           0|   -4.467751|   -1.655097|   -1.811228|    0.957360|    1.941794|    0.168719|
|         919|           0|   -4.488629|   -1.723526|   -1.824132|    0.934185|    1.941812|    0.168722|
|         920|           0|   -4.525039|   -1.774789|   -1.832937|    0.899684|    1.941830|    0.168726|
+-----------------------------------------------------------------------+
|        File Writing Summary       |              Filename             |
+-----------------------------------------------------------------------+
|SU2 restart                        |solution_flow.dat                  |
|Paraview                           |flow.vtu                           |
|Paraview surface                   |surface_flow.vtu                   |
+-----------------------------------------------------------------------+

Writing the forces breakdown file (forces_breakdown.dat).
+-------------------------------------------------------------------------------------------------------+
|  Inner_Iter|   Time_Iter|    rms[Rho]|   rms[RhoU]|   rms[RhoV]|   rms[RhoE]|          CL|          CD|
+-------------------------------------------------------------------------------------------------------+
|         921|           0|   -4.573856|   -1.809534|   -1.839452|    0.855033|    1.941848|    0.168729|
|         922|           0|   -4.570793|   -1.919131|   -1.846257|    0.874808|    1.941866|    0.168732|
|         923|           0|   -4.459886|   -1.840093|   -1.841445|    1.033175|    1.941884|    0.168735|
|         924|           0|   -4.365949|   -1.554921|   -1.810766|    1.165623|    1.941901|    0.168737|
|         925|           0|   -4.308763|   -1.377213|   -1.764062|    1.249293|    1.941919|    0.168739|
|         926|           0|   -4.293623|   -1.280224|   -1.722143|    1.283219|    1.941937|    0.168741|
|         927|           0|   -4.317609|   -1.241273|   -1.699590|    1.271300|    1.941954|    0.168743|
|         928|           0|   -4.369271|   -1.246975|   -1.701760|    1.220186|    1.941971|    0.168745|
|         929|           0|   -4.426560|   -1.289590|   -1.728210|    1.139533|    1.941987|    0.168746|
|         930|           0|   -4.459684|   -1.366694|   -1.773355|    1.048594|    1.942003|    0.168747|
+-----------------------------------------------------------------------+
|        File Writing Summary       |              Filename             |
+-----------------------------------------------------------------------+
|SU2 restart                        |solution_flow.dat                  |
|Paraview                           |flow.vtu                           |
|Paraview surface                   |surface_flow.vtu                   |
+-----------------------------------------------------------------------+

Writing the forces breakdown file (forces_breakdown.dat).
+-------------------------------------------------------------------------------------------------------+
|  Inner_Iter|   Time_Iter|    rms[Rho]|   rms[RhoU]|   rms[RhoV]|   rms[RhoE]|          CL|          CD|
+-------------------------------------------------------------------------------------------------------+
|         931|           0|   -4.448522|   -1.483091|   -1.823601|    0.993653|    1.942019|    0.168748|
|         932|           0|   -4.401021|   -1.652299|   -1.856969|    1.023643|    1.942033|    0.168748|
|         933|           0|   -4.337647|   -1.846828|   -1.856242|    1.113404|    1.942047|    0.168748|
|         934|           0|   -4.268261|   -1.731719|   -1.822200|    1.219370|    1.942061|    0.168748|
|         935|           0|   -4.192512|   -1.455047|   -1.762834|    1.328706|    1.942074|    0.168748|
|         936|           0|   -4.107951|   -1.228970|   -1.682843|    1.440932|    1.942086|    0.168747|
|         937|           0|   -4.125442|   -1.154671|   -1.649006|    1.442984|    1.942097|    0.168746|
|         938|           0|   -4.312742|   -1.261807|   -1.705115|    1.263806|    1.942107|    0.168745|
|         939|           0|   -4.437276|   -1.367577|   -1.758469|    1.108241|    1.942117|    0.168744|
|         940|           0|   -4.470289|   -1.469302|   -1.801792|    1.013106|    1.942126|    0.168743|
+-----------------------------------------------------------------------+
|        File Writing Summary       |              Filename             |
+-----------------------------------------------------------------------+
|SU2 restart                        |solution_flow.dat                  |
|Paraview                           |flow.vtu                           |
|Paraview surface                   |surface_flow.vtu                   |
+-----------------------------------------------------------------------+

Writing the forces breakdown file (forces_breakdown.dat).
+-------------------------------------------------------------------------------------------------------+
|  Inner_Iter|   Time_Iter|    rms[Rho]|   rms[RhoU]|   rms[RhoV]|   rms[RhoE]|          CL|          CD|
+-------------------------------------------------------------------------------------------------------+
|         941|           0|   -4.464835|   -1.564976|   -1.834810|    0.976944|    1.942135|    0.168741|
|         942|           0|   -4.465342|   -1.652000|   -1.858961|    0.960934|    1.942142|    0.168739|
|         943|           0|   -4.483625|   -1.725937|   -1.875540|    0.939122|    1.942150|    0.168738|
|         944|           0|   -4.517815|   -1.782588|   -1.886325|    0.906205|    1.942156|    0.168736|
|         945|           0|   -4.565010|   -1.821430|   -1.893593|    0.862649|    1.942162|    0.168734|
|         946|           0|   -4.588761|   -1.902036|   -1.900401|    0.849614|    1.942167|    0.168732|
|         947|           0|   -4.477761|   -1.915640|   -1.896774|    1.006991|    1.942172|    0.168730|
|         948|           0|   -4.378582|   -1.601121|   -1.861352|    1.147284|    1.942176|    0.168728|
|         949|           0|   -4.314354|   -1.402287|   -1.804977|    1.239817|    1.942181|    0.168726|
|         950|           0|   -4.292105|   -1.292352|   -1.752969|    1.282084|    1.942184|    0.168724|
+-----------------------------------------------------------------------+
|        File Writing Summary       |              Filename             |
+-----------------------------------------------------------------------+
|SU2 restart                        |solution_flow.dat                  |
|Paraview                           |flow.vtu                           |
|Paraview surface                   |surface_flow.vtu                   |
+-----------------------------------------------------------------------+

Writing the forces breakdown file (forces_breakdown.dat).
+-------------------------------------------------------------------------------------------------------+
|  Inner_Iter|   Time_Iter|    rms[Rho]|   rms[RhoU]|   rms[RhoV]|   rms[RhoE]|          CL|          CD|
+-------------------------------------------------------------------------------------------------------+
|         951|           0|   -4.310334|   -1.244234|   -1.722412|    1.277425|    1.942188|    0.168722|
|         952|           0|   -4.358982|   -1.242927|   -1.719347|    1.232200|    1.942191|    0.168720|
|         953|           0|   -4.418159|   -1.279653|   -1.743858|    1.155138|    1.942194|    0.168718|
|         954|           0|   -4.458288|   -1.351012|   -1.791635|    1.062700|    1.942197|    0.168716|
|         955|           0|   -4.455354|   -1.460599|   -1.850612|    0.995738|    1.942201|    0.168715|
|         956|           0|   -4.412515|   -1.621440|   -1.896666|    1.010150|    1.942203|    0.168714|
|         957|           0|   -4.350200|   -1.830621|   -1.904250|    1.094357|    1.942206|    0.168712|
|         958|           0|   -4.281277|   -1.786574|   -1.869828|    1.199848|    1.942209|    0.168711|
|         959|           0|   -4.206546|   -1.502647|   -1.805402|    1.309130|    1.942212|    0.168710|
|         960|           0|   -4.123010|   -1.265710|   -1.719570|    1.421475|    1.942216|    0.168710|
+-----------------------------------------------------------------------+
|        File Writing Summary       |              Filename             |
+-----------------------------------------------------------------------+
|SU2 restart                        |solution_flow.dat                  |
|Paraview                           |flow.vtu                           |
|Paraview surface                   |surface_flow.vtu                   |
+-----------------------------------------------------------------------+

Writing the forces breakdown file (forces_breakdown.dat).
+-------------------------------------------------------------------------------------------------------+
|  Inner_Iter|   Time_Iter|    rms[Rho]|   rms[RhoU]|   rms[RhoV]|   rms[RhoE]|          CL|          CD|
+-------------------------------------------------------------------------------------------------------+
|         961|           0|   -4.094171|   -1.138115|   -1.656182|    1.471526|    1.942220|    0.168709|
|         962|           0|   -4.285572|   -1.245564|   -1.716415|    1.291459|    1.942223|    0.168709|
|         963|           0|   -4.424540|   -1.352246|   -1.777183|    1.129324|    1.942228|    0.168709|
|         964|           0|   -4.470387|   -1.455491|   -1.828400|    1.022598|    1.942232|    0.168709|
|         965|           0|   -4.467338|   -1.553396|   -1.868452|    0.978979|    1.942237|    0.168710|
|         966|           0|   -4.465648|   -1.643737|   -1.898287|    0.961940|    1.942242|    0.168710|
|         967|           0|   -4.481768|   -1.722409|   -1.919090|    0.940923|    1.942248|    0.168711|
|         968|           0|   -4.514503|   -1.784534|   -1.932516|    0.908746|    1.942254|    0.168711|
|         969|           0|   -4.561031|   -1.828347|   -1.941199|    0.865298|    1.942260|    0.168712|
|         970|           0|   -4.612160|   -1.867208|   -1.948055|    0.819813|    1.942267|    0.168713|
+-----------------------------------------------------------------------+
|        File Writing Summary       |              Filename             |
+-----------------------------------------------------------------------+
|SU2 restart                        |solution_flow.dat                  |
|Paraview                           |flow.vtu                           |
|Paraview surface                   |surface_flow.vtu                   |
+-----------------------------------------------------------------------+

Writing the forces breakdown file (forces_breakdown.dat).
+-------------------------------------------------------------------------------------------------------+
|  Inner_Iter|   Time_Iter|    rms[Rho]|   rms[RhoU]|   rms[RhoV]|   rms[RhoE]|          CL|          CD|
+-------------------------------------------------------------------------------------------------------+
|         971|           0|   -4.500557|   -1.988052|   -1.948188|    0.975517|    1.942275|    0.168715|
|         972|           0|   -4.394643|   -1.652258|   -1.910150|    1.125448|    1.942282|    0.168716|
|         973|           0|   -4.322377|   -1.429552|   -1.844619|    1.228003|    1.942291|    0.168717|
|         974|           0|   -4.292049|   -1.305497|   -1.782178|    1.279513|    1.942299|    0.168719|
|         975|           0|   -4.303366|   -1.247556|   -1.743004|    1.282934|    1.942308|    0.168721|
|         976|           0|   -4.347736|   -1.238830|   -1.733861|    1.244300|    1.942317|    0.168722|
|         977|           0|   -4.406738|   -1.269430|   -1.755173|    1.172069|    1.942326|    0.168724|
|         978|           0|   -4.452222|   -1.334952|   -1.803806|    1.080343|    1.942335|    0.168726|
|         979|           0|   -4.457327|   -1.437755|   -1.869790|    1.004351|    1.942345|    0.168728|
|         980|           0|   -4.420244|   -1.589795|   -1.928838|    1.002258|    1.942355|    0.168730|
+-----------------------------------------------------------------------+
|        File Writing Summary       |              Filename             |
+-----------------------------------------------------------------------+
|SU2 restart                        |solution_flow.dat                  |
|Paraview                           |flow.vtu                           |
|Paraview surface                   |surface_flow.vtu                   |
+-----------------------------------------------------------------------+

Writing the forces breakdown file (forces_breakdown.dat).
+-------------------------------------------------------------------------------------------------------+
|  Inner_Iter|   Time_Iter|    rms[Rho]|   rms[RhoU]|   rms[RhoV]|   rms[RhoE]|          CL|          CD|
+-------------------------------------------------------------------------------------------------------+
|         981|           0|   -4.360452|   -1.803535|   -1.947076|    1.077590|    1.942365|    0.168732|
|         982|           0|   -4.292709|   -1.842404|   -1.913601|    1.181208|    1.942375|    0.168733|
|         983|           0|   -4.219614|   -1.556289|   -1.844612|    1.289743|    1.942386|    0.168735|
|         984|           0|   -4.137879|   -1.306198|   -1.753746|    1.401531|    1.942396|    0.168737|
|         985|           0|   -4.063288|   -1.121873|   -1.657317|    1.499495|    1.942407|    0.168739|
|         986|           0|   -4.256744|   -1.229680|   -1.720139|    1.319387|    1.942417|    0.168740|
|         987|           0|   -4.407045|   -1.337359|   -1.787555|    1.152641|    1.942426|    0.168742|
|         988|           0|   -4.466132|   -1.442267|   -1.847045|    1.035534|    1.942436|    0.168743|
|         989|           0|   -4.466782|   -1.542557|   -1.895575|    0.983908|    1.942446|    0.168744|
|         990|           0|   -4.463332|   -1.636305|   -1.933373|    0.965400|    1.942456|    0.168746|
+-----------------------------------------------------------------------+
|        File Writing Summary       |              Filename             |
+-----------------------------------------------------------------------+
|SU2 restart                        |solution_flow.dat                  |
|Paraview                           |flow.vtu                           |
|Paraview surface                   |surface_flow.vtu                   |
+-----------------------------------------------------------------------+

Writing the forces breakdown file (forces_breakdown.dat).
+-------------------------------------------------------------------------------------------------------+
|  Inner_Iter|   Time_Iter|    rms[Rho]|   rms[RhoU]|   rms[RhoV]|   rms[RhoE]|          CL|          CD|
+-------------------------------------------------------------------------------------------------------+
|         991|           0|   -4.477129|   -1.719701|   -1.961002|    0.945378|    1.942466|    0.168747|
|         992|           0|   -4.507679|   -1.787314|   -1.979395|    0.914926|    1.942475|    0.168747|
|         993|           0|   -4.552680|   -1.836128|   -1.991217|    0.872805|    1.942485|    0.168748|
|         994|           0|   -4.608378|   -1.868399|   -1.999612|    0.821928|    1.942494|    0.168749|
|         995|           0|   -4.517450|   -2.049783|   -2.002719|    0.951619|    1.942503|    0.168749|
|         996|           0|   -4.408478|   -1.703253|   -1.961235|    1.106416|    1.942511|    0.168749|
|         997|           0|   -4.330570|   -1.457421|   -1.885132|    1.216239|    1.942519|    0.168750|
|         998|           0|   -4.294140|   -1.320668|   -1.811670|    1.274889|    1.942527|    0.168750|
|         999|           0|   -4.299821|   -1.254105|   -1.763829|    1.284911|    1.942534|    0.168750|

----------------------------- Solver Exit -------------------------------

Maximum number of iterations reached (ITER = 1000) before convergence.
+-----------------------------------------------------------------------+
|      Convergence Field     |     Value    |   Criterion  |  Converged |
+-----------------------------------------------------------------------+
|                  Cauchy[CD]|   9.23943e-06|       < 1e-10|          No|
+-----------------------------------------------------------------------+
-------------------------------------------------------------------------
+-----------------------------------------------------------------------+
|        File Writing Summary       |              Filename             |
+-----------------------------------------------------------------------+
|SU2 restart                        |solution_flow.dat                  |
|Paraview                           |flow.vtu                           |
|Paraview surface                   |surface_flow.vtu                   |
+-----------------------------------------------------------------------+

Writing the forces breakdown file (forces_breakdown.dat).

------------------------- Solver Postprocessing -------------------------
Deleted CNumerics container.
Deleted CIntegration container.
Deleted CSolver container.
Deleted CIteration container.
Deleted CInterpolator container.
Deleted CInterface container.
Deleted CGeometry container.
Deleted CFreeFormDefBox class.
Deleted CSurfaceMovement class.
Deleted CVolumetricMovement class.
Deleted CConfig container.
Deleted nInst container.
Deleted COutput class.
-------------------------------------------------------------------------

------------------------- Exit Success (SU2_CFD) ------------------------

