
-------------------------------------------------------------------------
|    ___ _   _ ___                                                      |
|   / __| | | |_  )   Release 7.0.3 "Blackbird"                       |
|   \__ \ |_| |/ /                                                    |
|   |___/\___//___|   Suite (Computational Fluid Dynamics Code)        |
|                                                                       |
-------------------------------------------------------------------------
| SU2 Project Website: https://su2code.github.io                        |
|                                                                       |
| The SU2 Project is maintained by the SU2 Foundation                   |
| (http://su2foundation.org)                                            |
-------------------------------------------------------------------------
| Copyright 2012-2020, SU2 Contributors                                 |
|                                                                       |
| SU2 is free software; you can redistribute it and/or                  |
| modify it under the terms of the GNU Lesser General Public            |
| License as published by the Free Software Foundation; either          |
| version 2.1 of the License, or (at your option) any later version.    |
|                                                                       |
| SU2 is distributed in the hope that it will be useful,                |
| but WITHOUT ANY WARRANTY; without even the implied warranty of        |
| MERCHANTABILITY or FITNESS FOR A PARTICULAR PURPOSE. See the GNU      |
| Lesser General Public License for more details.                       |
|                                                                       |
| You should have received a copy of the GNU Lesser General Public      |
| License along with SU2. If not, see <http://www.gnu.org/licenses/>.   |
-------------------------------------------------------------------------


Problem definition:

Compressible Euler equations.
Mach number: 0.3.
Angle of attack (AoA): 2 deg, and angle of sideslip (AoS): 0 deg.
Dimensional simulation.
The reference area is 55.7983 m^2.
The reference length is 1.8008 m.


Problem definition:

Inviscid flow: Computing density based on free-stream
temperature and pressure using the ideal gas law.
Force coefficients computed using free-stream values.
-- Input conditions:
Fluid Model: STANDARD_AIR 
Specific gas constant: 287.058 N.m/kg.K.
Specific gas constant (non-dim): 287.058
Specific Heat Ratio: 1.4000 
Free-stream static pressure: 101325 Pa.
Free-stream total pressure: 107853 Pa.
Free-stream temperature: 288.15 K.
Free-stream total temperature: 293.337 K.
Free-stream density: 1.22498 kg/m^3.
Free-stream velocity: (102.027, 0, 3.56286) m/s. Magnitude: 102.089 m/s.
Free-stream total energy per unit mass: 212000 m^2/s^2.
-- Reference values:
Reference specific gas constant: 1 N.m/kg.K.
Reference pressure: 1 Pa.
Reference temperature: 1 K.
Reference density: 1 kg/m^3.
Reference velocity: 1 m/s.
Reference energy per unit mass: 1 m^2/s^2.
-- Resulting non-dimensional state:
Mach number (non-dim): 0.3
Specific gas constant (non-dim): 287.058
Free-stream temperature (non-dim): 288.15
Free-stream pressure (non-dim): 101325
Free-stream density (non-dim): 1.22498
Free-stream velocity (non-dim): (102.027, 0, 3.56286). Magnitude: 102.089
Free-stream total energy per unit mass (non-dim): 212000


Forces breakdown:

Center of Pressure: X=-0.008740Z+9.953990 m.

NOTE: Multiply forces by the non-dimensional factor: 356187.053093, and the reference factor: 1.000000
to obtain the dimensional force.

Total CL:       0.441754 | Pressure (   99%):    0.441754 | Friction (    0%):    0.000000 | Momentum (    0%):    0.000000
Total CD:       0.011562 | Pressure (   99%):    0.011562 | Friction (    0%):    0.000000 | Momentum (    0%):    0.000000
Total CSF:      0.002086 | Pressure (   99%):    0.002086 | Friction (    0%):    0.000000 | Momentum (    0%):    0.000000
Total CL/CD:   38.207427 | Pressure (  100%):   38.207427 | Friction (    0%):    0.000000 | Momentum (    0%):    0.000000
Total CMx:      0.004733 | Pressure (   99%):    0.004733 | Friction (    0%):    0.000000 | Momentum (    0%):    0.000000
Total CMy:     -0.078621 | Pressure (  100%):   -0.078621 | Friction (    0%):    0.000000 | Momentum (    0%):    0.000000
Total CMz:      0.004336 | Pressure (   99%):    0.004336 | Friction (    0%):    0.000000 | Momentum (    0%):    0.000000
Total CFx:     -0.003862 | Pressure (  100%):   -0.003862 | Friction (    0%):    0.000000 | Momentum (    0%):    0.000000
Total CFy:      0.002086 | Pressure (   99%):    0.002086 | Friction (    0%):    0.000000 | Momentum (    0%):    0.000000
Total CFz:      0.441888 | Pressure (   99%):    0.441888 | Friction (    0%):    0.000000 | Momentum (    0%):    0.000000


Surface name: VTP

Total CL    (    0%):    0.000372 | Pressure (   99%):    0.000372 | Friction (    0%):    0.000000 | Momentum (    0%):    0.000000
Total CD    (    2%):    0.000237 | Pressure (   99%):    0.000237 | Friction (    0%):    0.000000 | Momentum (    0%):    0.000000
Total CSF   (   23%):    0.000485 | Pressure (   99%):    0.000485 | Friction (    0%):    0.000000 | Momentum (    0%):    0.000000
Total CL/CD (    4%):    1.566316 | Pressure (  100%):    1.566316 | Friction (    0%):    0.000000 | Momentum (    0%):    0.000000
Total CMx   (  -11%):   -0.000522 | Pressure (  100%):   -0.000522 | Friction (    0%):    0.000000 | Momentum (    0%):    0.000000
Total CMy   (    1%):   -0.000835 | Pressure (  100%):   -0.000835 | Friction (    0%):    0.000000 | Momentum (    0%):    0.000000
Total CMz   (   33%):    0.001466 | Pressure (   99%):    0.001466 | Friction (    0%):    0.000000 | Momentum (    0%):    0.000000
Total CFx   (   -5%):    0.000224 | Pressure (   99%):    0.000224 | Friction (    0%):    0.000000 | Momentum (    0%):    0.000000
Total CFy   (   23%):    0.000485 | Pressure (   99%):    0.000485 | Friction (    0%):    0.000000 | Momentum (    0%):    0.000000
Total CFz   (    0%):    0.000380 | Pressure (   99%):    0.000380 | Friction (    0%):    0.000000 | Momentum (    0%):    0.000000

Surface name: Fuselage

Total CL    (    6%):    0.029577 | Pressure (   99%):    0.029577 | Friction (    0%):    0.000000 | Momentum (    0%):    0.000000
Total CD    (   28%):    0.003247 | Pressure (   99%):    0.003247 | Friction (    0%):    0.000000 | Momentum (    0%):    0.000000
Total CSF   (   70%):    0.001477 | Pressure (   99%):    0.001477 | Friction (    0%):    0.000000 | Momentum (    0%):    0.000000
Total CL/CD (   23%):    9.109195 | Pressure (  100%):    9.109195 | Friction (    0%):    0.000000 | Momentum (    0%):    0.000000
Total CMx   (   -5%):   -0.000259 | Pressure (  100%):   -0.000259 | Friction (    0%):    0.000000 | Momentum (    0%):    0.000000
Total CMy   (  -21%):    0.016966 | Pressure (   99%):    0.016966 | Friction (    0%):    0.000000 | Momentum (    0%):    0.000000
Total CMz   (    2%):    0.000115 | Pressure (   99%):    0.000115 | Friction (    0%):    0.000000 | Momentum (    0%):    0.000000
Total CFx   (  -57%):    0.002213 | Pressure (   99%):    0.002213 | Friction (    0%):    0.000000 | Momentum (    0%):    0.000000
Total CFy   (   70%):    0.001477 | Pressure (   99%):    0.001477 | Friction (    0%):    0.000000 | Momentum (    0%):    0.000000
Total CFz   (    6%):    0.029672 | Pressure (   99%):    0.029672 | Friction (    0%):    0.000000 | Momentum (    0%):    0.000000

Surface name: HTP

Total CL    (   -6%):   -0.027195 | Pressure (  100%):   -0.027195 | Friction (    0%):    0.000000 | Momentum (    0%):    0.000000
Total CD    (   -6%):   -0.000739 | Pressure (  100%):   -0.000739 | Friction (    0%):    0.000000 | Momentum (    0%):    0.000000
Total CSF   (    0%):   -0.000005 | Pressure (  100%):   -0.000005 | Friction (    0%):    0.000000 | Momentum (    0%):    0.000000
Total CL/CD (   96%):   36.815411 | Pressure (  100%):   36.815411 | Friction (    0%):    0.000000 | Momentum (    0%):    0.000000
Total CMx   (   -7%):   -0.000363 | Pressure (  100%):   -0.000363 | Friction (    0%):    0.000000 | Momentum (    0%):    0.000000
Total CMy   ( -118%):    0.092908 | Pressure (   99%):    0.092908 | Friction (    0%):    0.000000 | Momentum (    0%):    0.000000
Total CMz   (    0%):    0.000002 | Pressure (   99%):    0.000002 | Friction (    0%):    0.000000 | Momentum (    0%):    0.000000
Total CFx   (   -5%):    0.000211 | Pressure (   99%):    0.000211 | Friction (    0%):    0.000000 | Momentum (    0%):    0.000000
Total CFy   (    0%):   -0.000005 | Pressure (  100%):   -0.000005 | Friction (    0%):    0.000000 | Momentum (    0%):    0.000000
Total CFz   (   -6%):   -0.027204 | Pressure (  100%):   -0.027204 | Friction (    0%):    0.000000 | Momentum (    0%):    0.000000

Surface name: Wing

Total CL    (   99%):    0.439000 | Pressure (   99%):    0.439000 | Friction (    0%):    0.000000 | Momentum (    0%):    0.000000
Total CD    (   76%):    0.008817 | Pressure (   99%):    0.008817 | Friction (    0%):    0.000000 | Momentum (    0%):    0.000000
Total CSF   (    6%):    0.000130 | Pressure (   99%):    0.000130 | Friction (    0%):    0.000000 | Momentum (    0%):    0.000000
Total CL/CD (  130%):   49.792854 | Pressure (  100%):   49.792854 | Friction (    0%):    0.000000 | Momentum (    0%):    0.000000
Total CMx   (  124%):    0.005877 | Pressure (   99%):    0.005877 | Friction (    0%):    0.000000 | Momentum (    0%):    0.000000
Total CMy   (  238%):   -0.187660 | Pressure (  100%):   -0.187660 | Friction (    0%):    0.000000 | Momentum (    0%):    0.000000
Total CMz   (   63%):    0.002753 | Pressure (   99%):    0.002753 | Friction (    0%):    0.000000 | Momentum (    0%):    0.000000
Total CFx   (  168%):   -0.006510 | Pressure (  100%):   -0.006510 | Friction (    0%):    0.000000 | Momentum (    0%):    0.000000
Total CFy   (    6%):    0.000130 | Pressure (   99%):    0.000130 | Friction (    0%):    0.000000 | Momentum (    0%):    0.000000
Total CFz   (   99%):    0.439041 | Pressure (   99%):    0.439041 | Friction (    0%):    0.000000 | Momentum (    0%):    0.000000

