
-------------------------------------------------------------------------
|    ___ _   _ ___                                                      |
|   / __| | | |_  )   Release 7.0.3 "Blackbird"                         |
|   \__ \ |_| |/ /                                                      |
|   |___/\___//___|   Suite (Computational Fluid Dynamics Code)         |
|                                                                       |
-------------------------------------------------------------------------
| SU2 Project Website: https://su2code.github.io                        |
|                                                                       |
| The SU2 Project is maintained by the SU2 Foundation                   |
| (http://su2foundation.org)                                            |
-------------------------------------------------------------------------
| Copyright 2012-2020, SU2 Contributors                                 |
|                                                                       |
| SU2 is free software; you can redistribute it and/or                  |
| modify it under the terms of the GNU Lesser General Public            |
| License as published by the Free Software Foundation; either          |
| version 2.1 of the License, or (at your option) any later version.    |
|                                                                       |
| SU2 is distributed in the hope that it will be useful,                |
| but WITHOUT ANY WARRANTY; without even the implied warranty of        |
| MERCHANTABILITY or FITNESS FOR A PARTICULAR PURPOSE. See the GNU      |
| Lesser General Public License for more details.                       |
|                                                                       |
| You should have received a copy of the GNU Lesser General Public      |
| License along with SU2. If not, see <http://www.gnu.org/licenses/>.   |
-------------------------------------------------------------------------

Parsing config file for zone 0

----------------- Physical Case Definition ( Zone 0 ) -------------------
Compressible Euler equations.
Mach number: 0.294.
Angle of attack (AoA): 10 deg, and angle of sideslip (AoS): 0 deg.
No restart solution, use the values at infinity (freestream).
Dimensional simulation.
The reference area is 10 m^2.
The semi-span will be computed using the max y(3D) value.
The reference length is 1 m.
Reference origin for moment evaluation is (0, 0, 0).
Surface(s) where the force coefficients are evaluated: Wing_1.

Surface(s) where the objective function is evaluated: airfoil.
Surface(s) plotted in the output file: Wing_1.
Surface(s) to be analyzed in detail: airfoil.
Surface(s) affected by the design variables: Wing_1.
Input mesh file name: deformed.su2

--------------- Space Numerical Integration ( Zone 0 ) ------------------
Roe (with entropy fix = 0) solver for the flow inviscid terms.
Roe with DDES's FD low-dissipation function.
Second order integration in space, with slope limiter.
Venkatakrishnan slope-limiting method, with constant: 0.05. 
The reference element size is: 1. 
Gradient for upwind reconstruction: Green-Gauss.
Gradient for viscous and source terms: Green-Gauss.

--------------- Time Numerical Integration  ( Zone 0 ) ------------------
Local time stepping (steady state simulation).
Euler implicit method for the flow equations.
FGMRES is used for solving the linear system.
Using a ILU(0) preconditioning.
Convergence criteria of the linear solver: 1e-06.
Max number of linear iterations: 5.
V Multigrid Cycle, with 3 multigrid levels.
Damping factor for the residual restriction: 0.75.
Damping factor for the correction prolongation: 0.75.
No CFL adaptation.
+-------------------------------------------+
|  MG Level| Presmooth|PostSmooth|CorrectSmo|
+-------------------------------------------+
|         0|         1|         0|         0|
|         1|         2|         0|         0|
|         2|         3|         0|         0|
|         3|         3|         0|         0|
+-------------------------------------------+
Courant-Friedrichs-Lewy number:        1

------------------ Convergence Criteria  ( Zone 0 ) ---------------------
Maximum number of solver subiterations: 1000.
Begin convergence monitoring at iteration 10.
Residual minimum value: 1e-8.
Cauchy series min. value: 1e-10.
Number of Cauchy elements: 100.
Begin windowed time average at iteration 15.

-------------------- Output Information ( Zone 0 ) ----------------------
Writing solution files every 10 iterations.
Writing the convergence history file every 1 inner iterations.
Writing the screen convergence history every 1 inner iterations.
The tabular file format is Tecplot (.dat).
Convergence history file name: history.
Forces breakdown file name: forces_breakdown.dat.
Surface file name: surface_flow.
Volume file name: flow.
Restart file name: solution_flow.dat.

------------- Config File Boundary Information ( Zone 0 ) ---------------
+-----------------------------------------------------------------------+
|                        Marker Type|                        Marker Name|
+-----------------------------------------------------------------------+
|                         Euler wall|                             Wing_1|
+-----------------------------------------------------------------------+
|                          Far-field|                           Farfield|
+-----------------------------------------------------------------------+
|                     Symmetry plane|                                  0|
+-----------------------------------------------------------------------+
|           Deformable mesh boundary|                            airfoil|
+-----------------------------------------------------------------------+

-------------------- Output Preprocessing ( Zone 0 ) --------------------
Screen output fields: INNER_ITER, TIME_ITER, RMS_DENSITY, RMS_MOMENTUM-X, RMS_MOMENTUM-Y, RMS_ENERGY, LIFT, DRAG
  Info: Ignoring the following history output groups:
  TIME_ITER
History output group(s): ITER, RMS_RES, AERO_COEFF
Warning: No (valid) fields chosen for convergence monitoring. Convergence monitoring inactive.
Warning: No (valid) fields chosen for time convergence monitoring. Time convergence monitoring inactive.
Volume output fields: COORDINATES, SOLUTION, PRIMITIVE

------------------- Geometry Preprocessing ( Zone 0 ) -------------------
Three dimensional problem.
142678 grid points before partitioning.
739205 volume elements before partitioning.
2 surface markers.
99234 boundary elements in index 0 (Marker = Wing_1).
1280 boundary elements in index 1 (Marker = Farfield).
Executing the partitioning functions.
Building the graph adjacency structure.
Calling ParMETIS... graph partitioning complete (4166 edge cuts).
Distributing ParMETIS coloring.
Rebalancing vertices.
Rebalancing volume element connectivity.
Rebalancing markers and surface elements.
144929 vertices including ghost points. 
745322 interior elements including halo cells. 
745322 tetrahedra.
Establishing MPI communication patterns.
Setting point connectivity.
Renumbering points (Reverse Cuthill McKee Ordering).
Recomputing point connectivity.
Setting element connectivity.
Checking the numerical grid orientation.
Identifying edges and vertices.
Computing centers of gravity.
Setting the control volume structure.
Volume of the computational grid: 587948.
Searching for the closest normal neighbors to the surfaces.
Storing a mapping from global to local point index.
Compute the surface curvature.
Max K: 956.227. Mean K: 12.8938. Standard deviation K: 55.0272.
Checking for periodicity.
Computing mesh quality statistics for the dual control volumes.
+--------------------------------------------------------------+
|           Mesh Quality Metric|        Minimum|        Maximum|
+--------------------------------------------------------------+
|    Orthogonality Angle (deg.)|        46.3927|        85.7658|
|     CV Face Area Aspect Ratio|        1.42232|         36.759|
|           CV Sub-Volume Ratio|        1.02917|        142.831|
+--------------------------------------------------------------+
Setting the multigrid structure.
+-------------------------------------------+
|  MG Level|       CVs|Aggl. Rate|       CFL|
+-------------------------------------------+
|         0|    144929|    1/1.00|         1|
|         1|     24168|       1/6|  0.825632|
|         2|      3805|    1/6.35|  0.668727|
|         3|       762|    1/4.99|  0.586868|
+-------------------------------------------+
Finding max control volume width.
Communicating number of neighbors.
Semi-span length = 4.98995 m.
Wetted area = 42.1791 m^2.
Area projection in the x-plane = 3.09009 m^2, y-plane = 1.60398 m^2, z-plane = 20.0931 m^2.
Max. coordinate in the x-direction = 1.02214 m, y-direction = 4.98995 m, z-direction = 0.504135 m.
Min. coordinate in the x-direction = -1.02771 m, y-direction = -4.98927 m, z-direction = -0.117513 m.
Checking if Euler & Symmetry markers are straight/plane:
Boundary marker Wing_1 is NOT a single plane.
Boundary marker 0 is a single plane.

-------------------- Solver Preprocessing ( Zone 0 ) --------------------
Inviscid flow: Computing density based on free-stream
temperature and pressure using the ideal gas law.
Force coefficients computed using free-stream values.

-- Models:
+------------------------------------------------------------------------------+
|          Viscosity Model|        Conductivity Model|              Fluid Model|
+------------------------------------------------------------------------------+
|                        -|                         -|             STANDARD_AIR|
+------------------------------------------------------------------------------+
-- Fluid properties:
+------------------------------------------------------------------------------+
|                  Name|    Dim. value|    Ref. value|      Unit|Non-dim. value|
+------------------------------------------------------------------------------+
|          Gas Constant|       287.058|             1|  N.m/kg.K|       287.058|
|      Spec. Heat Ratio|             -|             -|         -|           1.4|
+------------------------------------------------------------------------------+
-- Initial and free-stream conditions:
+------------------------------------------------------------------------------+
|                  Name|    Dim. value|    Ref. value|      Unit|Non-dim. value|
+------------------------------------------------------------------------------+
|       Static Pressure|        101325|             1|        Pa|        101325|
|               Density|       1.22498|             1|    kg/m^3|       1.22498|
|           Temperature|        288.15|             1|         K|        288.15|
|          Total Energy|        211794|             1|   m^2/s^2|        211794|
|            Velocity-X|       98.5274|             1|       m/s|       98.5274|
|            Velocity-Y|             0|             1|       m/s|             0|
|            Velocity-Z|        17.373|             1|       m/s|        17.373|
|    Velocity Magnitude|       100.047|             1|       m/s|       100.047|
+------------------------------------------------------------------------------+
|           Mach Number|             -|             -|         -|         0.294|
+------------------------------------------------------------------------------+
Initialize Jacobian structure (Euler). MG level: 0.
Initialize Jacobian structure (Euler). MG level: 1.
Initialize Jacobian structure (Euler). MG level: 2.
Initialize Jacobian structure (Euler). MG level: 3.

------------------- Numerics Preprocessing ( Zone 0 ) -------------------

----------------- Integration Preprocessing ( Zone 0 ) ------------------

------------------- Iteration Preprocessing ( Zone 0 ) ------------------
Euler/Navier-Stokes/RANS fluid iteration.

------------------------------ Begin Solver -----------------------------

Simulation Run using the Single-zone Driver
+-------------------------------------------------------------------------------------------------------+
|  Inner_Iter|   Time_Iter|    rms[Rho]|   rms[RhoU]|   rms[RhoV]|   rms[RhoE]|          CL|          CD|
+-------------------------------------------------------------------------------------------------------+
|           0|           0|   -1.660534|    0.507068|   -0.320843|    3.808566|    2.188821|    0.975409|
|           1|           0|   -1.734226|    0.479159|    0.054506|    3.736765|    3.788521|    1.677691|
|           2|           0|   -1.672931|    0.601249|    0.297374|    3.801168|    4.881935|    2.144446|
|           3|           0|   -1.583873|    0.728770|    0.447501|    3.891250|    5.561566|    2.416707|
|           4|           0|   -1.503014|    0.842202|    0.566945|    3.972547|    5.913521|    2.533397|
|           5|           0|   -1.432937|    0.944675|    0.674802|    4.043078|    6.014270|    2.530508|
|           6|           0|   -1.371768|    1.038020|    0.776144|    4.104714|    5.929260|    2.439868|
|           7|           0|   -1.318740|    1.122636|    0.871512|    4.158114|    5.713476|    2.288646|
|           8|           0|   -1.274001|    1.198633|    0.960384|    4.203035|    5.413331|    2.099891|
|           9|           0|   -1.237725|    1.266204|    1.042174|    4.239239|    5.065868|    1.892400|
|          10|           0|   -1.210227|    1.325695|    1.116369|    4.266331|    4.697313|    1.680024|
+-----------------------------------------------------------------------+
|        File Writing Summary       |              Filename             |
+-----------------------------------------------------------------------+
|SU2 restart                        |solution_flow.dat                  |
|Paraview                           |flow.vtu                           |
|Paraview surface                   |surface_flow.vtu                   |
+-----------------------------------------------------------------------+

Writing the forces breakdown file (forces_breakdown.dat).
+-------------------------------------------------------------------------------------------------------+
|  Inner_Iter|   Time_Iter|    rms[Rho]|   rms[RhoU]|   rms[RhoV]|   rms[RhoE]|          CL|          CD|
+-------------------------------------------------------------------------------------------------------+
|          11|           0|   -1.191721|    1.377312|    1.182750|    4.283961|    4.326158|    1.472499|
|          12|           0|   -1.182227|    1.421382|    1.241414|    4.291948|    3.964851|    1.276384|
|          13|           0|   -1.181640|    1.458200|    1.292440|    4.290167|    3.620531|    1.095379|
|          14|           0|   -1.189360|    1.487922|    1.335925|    4.278836|    3.296284|    0.930916|
|          15|           0|   -1.204504|    1.510777|    1.372017|    4.258367|    2.992427|    0.782888|
|          16|           0|   -1.224875|    1.526999|    1.400919|    4.230466|    2.707366|    0.650132|
|          17|           0|   -1.246361|    1.536771|    1.422674|    4.199213|    2.438612|    0.530959|
|          18|           0|   -1.263126|    1.540332|    1.437392|    4.171670|    2.183413|    0.423473|
|          19|           0|   -1.267737|    1.537772|    1.445206|    4.158592|    1.939215|    0.325833|
|          20|           0|   -1.256292|    1.529323|    1.446132|    4.167705|    1.704025|    0.236417|
+-----------------------------------------------------------------------+
|        File Writing Summary       |              Filename             |
+-----------------------------------------------------------------------+
|SU2 restart                        |solution_flow.dat                  |
|Paraview                           |flow.vtu                           |
|Paraview surface                   |surface_flow.vtu                   |
+-----------------------------------------------------------------------+

Writing the forces breakdown file (forces_breakdown.dat).
+-------------------------------------------------------------------------------------------------------+
|  Inner_Iter|   Time_Iter|    rms[Rho]|   rms[RhoU]|   rms[RhoV]|   rms[RhoE]|          CL|          CD|
+-------------------------------------------------------------------------------------------------------+
|          21|           0|   -1.230298|    1.515440|    1.440409|    4.198047|    1.476541|    0.153906|
|          22|           0|   -1.195518|    1.496352|    1.428211|    4.240905|    1.256351|    0.077372|
|          23|           0|   -1.158472|    1.472989|    1.409621|    4.286628|    1.043851|    0.006250|
|          24|           0|   -1.123978|    1.445706|    1.385142|    4.328768|    0.840128|   -0.059680|
|          25|           0|   -1.094848|    1.416234|    1.355371|    4.364053|    0.646798|   -0.120363|
|          26|           0|   -1.072686|    1.386531|    1.321954|    4.390841|    0.465797|   -0.175559|
|          27|           0|   -1.057290|    1.358669|    1.286583|    4.409428|    0.299253|   -0.224896|
|          28|           0|   -1.048588|    1.334402|    1.251723|    4.419923|    0.149273|   -0.267939|
|          29|           0|   -1.045660|    1.318471|    1.221735|    4.423503|    0.017808|   -0.304255|
|          30|           0|   -1.047671|    1.312624|    1.200088|    4.421041|   -0.093426|   -0.333465|
+-----------------------------------------------------------------------+
|        File Writing Summary       |              Filename             |
+-----------------------------------------------------------------------+
|SU2 restart                        |solution_flow.dat                  |
|Paraview                           |flow.vtu                           |
|Paraview surface                   |surface_flow.vtu                   |
+-----------------------------------------------------------------------+

Writing the forces breakdown file (forces_breakdown.dat).
+-------------------------------------------------------------------------------------------------------+
|  Inner_Iter|   Time_Iter|    rms[Rho]|   rms[RhoU]|   rms[RhoV]|   rms[RhoE]|          CL|          CD|
+-------------------------------------------------------------------------------------------------------+
|          31|           0|   -1.053038|    1.316343|    1.189761|    4.414102|   -0.183027|   -0.355279|
|          32|           0|   -1.060533|    1.328708|    1.191873|    4.403883|   -0.249937|   -0.369510|
|          33|           0|   -1.068183|    1.346828|    1.205953|    4.392667|   -0.293487|   -0.376083|
|          34|           0|   -1.074467|    1.368536|    1.228421|    4.382172|   -0.313406|   -0.375053|
|          35|           0|   -1.079150|    1.392875|    1.255379|    4.373154|   -0.309806|   -0.366592|
|          36|           0|   -1.082404|    1.417974|    1.284575|    4.366079|   -0.283190|   -0.350995|
|          37|           0|   -1.085629|    1.441333|    1.313833|    4.359571|   -0.234380|   -0.328639|
|          38|           0|   -1.089178|    1.461463|    1.341492|    4.353235|   -0.164521|   -0.299998|
|          39|           0|   -1.093689|    1.477568|    1.367463|    4.346331|   -0.075047|   -0.265623|
|          40|           0|   -1.099696|    1.489300|    1.390460|    4.338221|    0.032354|   -0.226129|
+-----------------------------------------------------------------------+
|        File Writing Summary       |              Filename             |
+-----------------------------------------------------------------------+
|SU2 restart                        |solution_flow.dat                  |
|Paraview                           |flow.vtu                           |
|Paraview surface                   |surface_flow.vtu                   |
+-----------------------------------------------------------------------+

Writing the forces breakdown file (forces_breakdown.dat).
+-------------------------------------------------------------------------------------------------------+
|  Inner_Iter|   Time_Iter|    rms[Rho]|   rms[RhoU]|   rms[RhoV]|   rms[RhoE]|          CL|          CD|
+-------------------------------------------------------------------------------------------------------+
|          41|           0|   -1.107092|    1.496291|    1.409203|    4.329042|    0.155758|   -0.182184|
|          42|           0|   -1.114173|    1.498055|    1.423359|    4.320632|    0.293039|   -0.134504|
|          43|           0|   -1.119681|    1.494320|    1.432383|    4.314372|    0.441905|   -0.083841|
|          44|           0|   -1.122108|    1.485160|    1.436333|    4.312149|    0.599940|   -0.030963|
|          45|           0|   -1.119927|    1.470447|    1.434908|    4.315664|    0.764654|    0.023343|
|          46|           0|   -1.112625|    1.450301|    1.428446|    4.325386|    0.933504|    0.078291|
|          47|           0|   -1.101817|    1.425301|    1.417854|    4.339300|    1.103957|    0.133105|
|          48|           0|   -1.089364|    1.396172|    1.403802|    4.355026|    1.273492|    0.187022|
|          49|           0|   -1.077193|    1.364887|    1.387414|    4.370317|    1.439672|    0.239305|
|          50|           0|   -1.066705|    1.333966|    1.370584|    4.383476|    1.600157|    0.289253|
+-----------------------------------------------------------------------+
|        File Writing Summary       |              Filename             |
+-----------------------------------------------------------------------+
|SU2 restart                        |solution_flow.dat                  |
|Paraview                           |flow.vtu                           |
|Paraview surface                   |surface_flow.vtu                   |
+-----------------------------------------------------------------------+

Writing the forces breakdown file (forces_breakdown.dat).
+-------------------------------------------------------------------------------------------------------+
|  Inner_Iter|   Time_Iter|    rms[Rho]|   rms[RhoU]|   rms[RhoV]|   rms[RhoE]|          CL|          CD|
+-------------------------------------------------------------------------------------------------------+
|          51|           0|   -1.059627|    1.306533|    1.355214|    4.392740|    1.752760|    0.336208|
|          52|           0|   -1.057766|    1.286762|    1.344030|    4.396179|    1.895474|    0.379572|
|          53|           0|   -1.060419|    1.277709|    1.338673|    4.394464|    2.026510|    0.418812|
|          54|           0|   -1.067772|    1.280483|    1.340301|    4.387254|    2.144318|    0.453470|
|          55|           0|   -1.080174|    1.292254|    1.348008|    4.374051|    2.247631|    0.483173|
|          56|           0|   -1.096636|    1.309553|    1.360325|    4.355672|    2.335474|    0.507642|
|          57|           0|   -1.115124|    1.328233|    1.374838|    4.334091|    2.407162|    0.526688|
|          58|           0|   -1.134653|    1.346326|    1.389687|    4.310186|    2.462312|    0.540217|
|          59|           0|   -1.153326|    1.362054|    1.403421|    4.285866|    2.500846|    0.548232|
|          60|           0|   -1.169107|    1.374432|    1.414889|    4.263694|    2.522966|    0.550820|
+-----------------------------------------------------------------------+
|        File Writing Summary       |              Filename             |
+-----------------------------------------------------------------------+
|SU2 restart                        |solution_flow.dat                  |
|Paraview                           |flow.vtu                           |
|Paraview surface                   |surface_flow.vtu                   |
+-----------------------------------------------------------------------+

Writing the forces breakdown file (forces_breakdown.dat).
+-------------------------------------------------------------------------------------------------------+
|  Inner_Iter|   Time_Iter|    rms[Rho]|   rms[RhoU]|   rms[RhoV]|   rms[RhoE]|          CL|          CD|
+-------------------------------------------------------------------------------------------------------+
|          61|           0|   -1.181622|    1.382816|    1.423697|    4.244872|    2.529151|    0.548162|
|          62|           0|   -1.189857|    1.387606|    1.429450|    4.231405|    2.520111|    0.540515|
|          63|           0|   -1.193643|    1.388277|    1.432149|    4.224303|    2.496785|    0.528209|
|          64|           0|   -1.193685|    1.385507|    1.431757|    4.223094|    2.460331|    0.511642|
|          65|           0|   -1.190896|    1.379630|    1.428414|    4.226966|    2.412052|    0.491266|
|          66|           0|   -1.186354|    1.370770|    1.422207|    4.234447|    2.353402|    0.467581|
|          67|           0|   -1.181339|    1.358685|    1.413480|    4.243610|    2.285926|    0.441117|
|          68|           0|   -1.177105|    1.343462|    1.402467|    4.252534|    2.211240|    0.412426|
|          69|           0|   -1.174254|    1.326089|    1.389716|    4.260189|    2.131022|    0.382080|
|          70|           0|   -1.173080|    1.307099|    1.375937|    4.266006|    2.046944|    0.350647|
+-----------------------------------------------------------------------+
|        File Writing Summary       |              Filename             |
+-----------------------------------------------------------------------+
|SU2 restart                        |solution_flow.dat                  |
|Paraview                           |flow.vtu                           |
|Paraview surface                   |surface_flow.vtu                   |
+-----------------------------------------------------------------------+

Writing the forces breakdown file (forces_breakdown.dat).
+-------------------------------------------------------------------------------------------------------+
|  Inner_Iter|   Time_Iter|    rms[Rho]|   rms[RhoU]|   rms[RhoV]|   rms[RhoE]|          CL|          CD|
+-------------------------------------------------------------------------------------------------------+
|          71|           0|   -1.173927|    1.286764|    1.361604|    4.269376|    1.960648|    0.318683|
|          72|           0|   -1.176936|    1.266264|    1.347753|    4.270000|    1.873739|    0.286728|
|          73|           0|   -1.181871|    1.246644|    1.335004|    4.268031|    1.787765|    0.255301|
|          74|           0|   -1.188356|    1.229397|    1.324296|    4.263789|    1.704159|    0.224878|
|          75|           0|   -1.196553|    1.215697|    1.316144|    4.257016|    1.624231|    0.195893|
|          76|           0|   -1.206284|    1.206468|    1.310782|    4.247773|    1.549155|    0.168730|
|          77|           0|   -1.217645|    1.202891|    1.308244|    4.235916|    1.479959|    0.143722|
|          78|           0|   -1.229988|    1.204443|    1.308289|    4.222026|    1.417526|    0.121148|
|          79|           0|   -1.243580|    1.210453|    1.310199|    4.205758|    1.362569|    0.101228|
|          80|           0|   -1.258323|    1.219389|    1.313135|    4.187152|    1.315627|    0.084122|
+-----------------------------------------------------------------------+
|        File Writing Summary       |              Filename             |
+-----------------------------------------------------------------------+
|SU2 restart                        |solution_flow.dat                  |
|Paraview                           |flow.vtu                           |
|Paraview surface                   |surface_flow.vtu                   |
+-----------------------------------------------------------------------+

Writing the forces breakdown file (forces_breakdown.dat).
+-------------------------------------------------------------------------------------------------------+
|  Inner_Iter|   Time_Iter|    rms[Rho]|   rms[RhoU]|   rms[RhoV]|   rms[RhoE]|          CL|          CD|
+-------------------------------------------------------------------------------------------------------+
|          81|           0|   -1.272920|    1.229559|    1.316321|    4.167700|    1.277082|    0.069933|
|          82|           0|   -1.287186|    1.240299|    1.319234|    4.147801|    1.247142|    0.058706|
|          83|           0|   -1.300885|    1.250115|    1.321464|    4.127985|    1.225875|    0.050437|
|          84|           0|   -1.313039|    1.257728|    1.322480|    4.109826|    1.213194|    0.045067|
|          85|           0|   -1.323800|    1.263477|    1.321667|    4.093811|    1.208871|    0.042492|
|          86|           0|   -1.333694|    1.267000|    1.318871|    4.079821|    1.212545|    0.042564|
|          87|           0|   -1.342546|    1.268067|    1.313714|    4.068333|    1.223758|    0.045100|
|          88|           0|   -1.350329|    1.266440|    1.306357|    4.059614|    1.241936|    0.049887|
|          89|           0|   -1.357139|    1.262478|    1.296802|    4.053543|    1.266438|    0.056691|
|          90|           0|   -1.363272|    1.255839|    1.285454|    4.049742|    1.296548|    0.065259|
+-----------------------------------------------------------------------+
|        File Writing Summary       |              Filename             |
+-----------------------------------------------------------------------+
|SU2 restart                        |solution_flow.dat                  |
|Paraview                           |flow.vtu                           |
|Paraview surface                   |surface_flow.vtu                   |
+-----------------------------------------------------------------------+

Writing the forces breakdown file (forces_breakdown.dat).
+-------------------------------------------------------------------------------------------------------+
|  Inner_Iter|   Time_Iter|    rms[Rho]|   rms[RhoU]|   rms[RhoV]|   rms[RhoE]|          CL|          CD|
+-------------------------------------------------------------------------------------------------------+
|          91|           0|   -1.368871|    1.246230|    1.272326|    4.047746|    1.331509|    0.075328|
|          92|           0|   -1.374275|    1.233974|    1.257408|    4.046797|    1.370525|    0.086626|
|          93|           0|   -1.380188|    1.219477|    1.241223|    4.045720|    1.412763|    0.098873|
|          94|           0|   -1.386822|    1.203203|    1.224339|    4.044070|    1.457406|    0.111799|
|          95|           0|   -1.394480|    1.185754|    1.207090|    4.041284|    1.503624|    0.125139|
|          96|           0|   -1.403315|    1.167607|    1.190108|    4.037009|    1.550627|    0.138643|
|          97|           0|   -1.413170|    1.149637|    1.173757|    4.031278|    1.597647|    0.152073|
|          98|           0|   -1.423931|    1.132370|    1.158411|    4.024072|    1.643968|    0.165212|
|          99|           0|   -1.436405|    1.117145|    1.144601|    4.014361|    1.688924|    0.177863|
|         100|           0|   -1.450140|    1.104799|    1.132797|    4.002711|    1.731878|    0.189844|
+-----------------------------------------------------------------------+
|        File Writing Summary       |              Filename             |
+-----------------------------------------------------------------------+
|SU2 restart                        |solution_flow.dat                  |
|Paraview                           |flow.vtu                           |
|Paraview surface                   |surface_flow.vtu                   |
+-----------------------------------------------------------------------+

Writing the forces breakdown file (forces_breakdown.dat).
+-------------------------------------------------------------------------------------------------------+
|  Inner_Iter|   Time_Iter|    rms[Rho]|   rms[RhoU]|   rms[RhoV]|   rms[RhoE]|          CL|          CD|
+-------------------------------------------------------------------------------------------------------+
|         101|           0|   -1.464880|    1.095809|    1.123187|    3.989350|    1.772296|    0.201009|
|         102|           0|   -1.480425|    1.090258|    1.115674|    3.974389|    1.809698|    0.211231|
|         103|           0|   -1.496604|    1.088093|    1.110023|    3.957950|    1.843683|    0.220409|
|         104|           0|   -1.513380|    1.088741|    1.105716|    3.940134|    1.873922|    0.228467|
|         105|           0|   -1.530416|    1.091982|    1.102262|    3.921336|    1.900169|    0.235354|
|         106|           0|   -1.547768|    1.097127|    1.099235|    3.901474|    1.922256|    0.241041|
|         107|           0|   -1.564538|    1.103051|    1.096238|    3.881526|    1.940088|    0.245527|
|         108|           0|   -1.580952|    1.108855|    1.092734|    3.861426|    1.953631|    0.248824|
|         109|           0|   -1.597020|    1.114145|    1.088542|    3.841426|    1.962944|    0.250968|
|         110|           0|   -1.612426|    1.118385|    1.083433|    3.822156|    1.968143|    0.252009|
+-----------------------------------------------------------------------+
|        File Writing Summary       |              Filename             |
+-----------------------------------------------------------------------+
|SU2 restart                        |solution_flow.dat                  |
|Paraview                           |flow.vtu                           |
|Paraview surface                   |surface_flow.vtu                   |
+-----------------------------------------------------------------------+

Writing the forces breakdown file (forces_breakdown.dat).
+-------------------------------------------------------------------------------------------------------+
|  Inner_Iter|   Time_Iter|    rms[Rho]|   rms[RhoU]|   rms[RhoV]|   rms[RhoE]|          CL|          CD|
+-------------------------------------------------------------------------------------------------------+
|         111|           0|   -1.627090|    1.121681|    1.077417|    3.803954|    1.969399|    0.252013|
|         112|           0|   -1.640557|    1.123752|    1.070234|    3.787586|    1.966931|    0.251051|
|         113|           0|   -1.652741|    1.124678|    1.061654|    3.773431|    1.960987|    0.249204|
|         114|           0|   -1.663841|    1.124318|    1.051433|    3.761387|    1.951873|    0.246560|
|         115|           0|   -1.673782|    1.122577|    1.039584|    3.751702|    1.939931|    0.243216|
|         116|           0|   -1.682438|    1.119402|    1.025993|    3.744518|    1.925525|    0.239271|
|         117|           0|   -1.689663|    1.114705|    1.010682|    3.739801|    1.909041|    0.234828|
|         118|           0|   -1.695671|    1.108542|    0.993610|    3.737199|    1.890861|    0.229982|
|         119|           0|   -1.700383|    1.101066|    0.974880|    3.736556|    1.871379|    0.224832|
|         120|           0|   -1.704107|    1.092403|    0.954608|    3.737304|    1.850973|    0.219467|
+-----------------------------------------------------------------------+
|        File Writing Summary       |              Filename             |
+-----------------------------------------------------------------------+
|SU2 restart                        |solution_flow.dat                  |
|Paraview                           |flow.vtu                           |
|Paraview surface                   |surface_flow.vtu                   |
+-----------------------------------------------------------------------+

Writing the forces breakdown file (forces_breakdown.dat).
+-------------------------------------------------------------------------------------------------------+
|  Inner_Iter|   Time_Iter|    rms[Rho]|   rms[RhoU]|   rms[RhoV]|   rms[RhoE]|          CL|          CD|
+-------------------------------------------------------------------------------------------------------+
|         121|           0|   -1.707039|    1.082723|    0.933074|    3.738952|    1.830027|    0.213979|
|         122|           0|   -1.709298|    1.071978|    0.910490|    3.741145|    1.808905|    0.208449|
|         123|           0|   -1.711437|    1.060745|    0.887286|    3.743153|    1.787957|    0.202957|
|         124|           0|   -1.713966|    1.049407|    0.863877|    3.744260|    1.767517|    0.197575|
|         125|           0|   -1.717191|    1.038177|    0.840838|    3.744034|    1.747896|    0.192369|
|         126|           0|   -1.721310|    1.026990|    0.819054|    3.742010|    1.729374|    0.187398|
|         127|           0|   -1.726471|    1.016453|    0.799522|    3.738347|    1.712193|    0.182713|
|         128|           0|   -1.733046|    1.006776|    0.783033|    3.732435|    1.696572|    0.178355|
|         129|           0|   -1.741200|    0.998380|    0.770385|    3.724223|    1.682697|    0.174361|
|         130|           0|   -1.750675|    0.991195|    0.761958|    3.713913|    1.670721|    0.170761|
+-----------------------------------------------------------------------+
|        File Writing Summary       |              Filename             |
+-----------------------------------------------------------------------+
|SU2 restart                        |solution_flow.dat                  |
|Paraview                           |flow.vtu                           |
|Paraview surface                   |surface_flow.vtu                   |
+-----------------------------------------------------------------------+

Writing the forces breakdown file (forces_breakdown.dat).
+-------------------------------------------------------------------------------------------------------+
|  Inner_Iter|   Time_Iter|    rms[Rho]|   rms[RhoU]|   rms[RhoV]|   rms[RhoE]|          CL|          CD|
+-------------------------------------------------------------------------------------------------------+
|         131|           0|   -1.761390|    0.983853|    0.757178|    3.701282|    1.660757|    0.167573|
|         132|           0|   -1.773050|    0.977304|    0.755921|    3.686905|    1.652893|    0.164815|
|         133|           0|   -1.785229|    0.971724|    0.757636|    3.671302|    1.647185|    0.162495|
|         134|           0|   -1.797356|    0.967109|    0.761346|    3.655104|    1.643650|    0.160615|
|         135|           0|   -1.809107|    0.963503|    0.766306|    3.638652|    1.642269|    0.159168|
|         136|           0|   -1.820226|    0.960494|    0.771651|    3.622295|    1.642997|    0.158144|
|         137|           0|   -1.830003|    0.957359|    0.776499|    3.606934|    1.645765|    0.157529|
|         138|           0|   -1.838173|    0.954086|    0.780282|    3.593103|    1.650465|    0.157298|
|         139|           0|   -1.844620|    0.950254|    0.782431|    3.581381|    1.656962|    0.157422|
|         140|           0|   -1.849250|    0.945621|    0.782594|    3.572393|    1.665088|    0.157866|
+-----------------------------------------------------------------------+
|        File Writing Summary       |              Filename             |
+-----------------------------------------------------------------------+
|SU2 restart                        |solution_flow.dat                  |
|Paraview                           |flow.vtu                           |
|Paraview surface                   |surface_flow.vtu                   |
+-----------------------------------------------------------------------+

Writing the forces breakdown file (forces_breakdown.dat).
+-------------------------------------------------------------------------------------------------------+
|  Inner_Iter|   Time_Iter|    rms[Rho]|   rms[RhoU]|   rms[RhoV]|   rms[RhoE]|          CL|          CD|
+-------------------------------------------------------------------------------------------------------+
|         141|           0|   -1.852087|    0.940053|    0.780603|    3.566497|    1.674671|    0.158594|
|         142|           0|   -1.853061|    0.933341|    0.776477|    3.563981|    1.685507|    0.159564|
|         143|           0|   -1.852728|    0.925549|    0.770043|    3.564292|    1.697390|    0.160738|
|         144|           0|   -1.851278|    0.916606|    0.761382|    3.567059|    1.710097|    0.162072|
|         145|           0|   -1.849569|    0.906335|    0.750479|    3.571205|    1.723409|    0.163529|
|         146|           0|   -1.848010|    0.894967|    0.737343|    3.576120|    1.737092|    0.165064|
|         147|           0|   -1.846986|    0.882644|    0.721980|    3.581094|    1.750920|    0.166637|
|         148|           0|   -1.846410|    0.869405|    0.704476|    3.586056|    1.764676|    0.168210|
|         149|           0|   -1.846692|    0.855494|    0.685186|    3.590325|    1.778142|    0.169743|
|         150|           0|   -1.847677|    0.841085|    0.664665|    3.593841|    1.791126|    0.171206|
+-----------------------------------------------------------------------+
|        File Writing Summary       |              Filename             |
+-----------------------------------------------------------------------+
|SU2 restart                        |solution_flow.dat                  |
|Paraview                           |flow.vtu                           |
|Paraview surface                   |surface_flow.vtu                   |
+-----------------------------------------------------------------------+

Writing the forces breakdown file (forces_breakdown.dat).
+-------------------------------------------------------------------------------------------------------+
|  Inner_Iter|   Time_Iter|    rms[Rho]|   rms[RhoU]|   rms[RhoV]|   rms[RhoE]|          CL|          CD|
+-------------------------------------------------------------------------------------------------------+
|         151|           0|   -1.849610|    0.826486|    0.643428|    3.596196|    1.803449|    0.172570|
|         152|           0|   -1.852499|    0.811897|    0.622154|    3.597251|    1.814947|    0.173813|
|         153|           0|   -1.856497|    0.797593|    0.601648|    3.596700|    1.825473|    0.174915|
|         154|           0|   -1.861640|    0.784168|    0.583090|    3.594356|    1.834899|    0.175858|
|         155|           0|   -1.867747|    0.772031|    0.567737|    3.590320|    1.843116|    0.176630|
|         156|           0|   -1.875015|    0.761618|    0.556408|    3.584318|    1.850037|    0.177219|
|         157|           0|   -1.883272|    0.753210|    0.549600|    3.576527|    1.855604|    0.177621|
|         158|           0|   -1.892451|    0.746731|    0.547398|    3.566872|    1.859778|    0.177835|
|         159|           0|   -1.902302|    0.741987|    0.549273|    3.555565|    1.862553|    0.177866|
|         160|           0|   -1.912734|    0.738885|    0.554250|    3.542594|    1.863931|    0.177717|
+-----------------------------------------------------------------------+
|        File Writing Summary       |              Filename             |
+-----------------------------------------------------------------------+
|SU2 restart                        |solution_flow.dat                  |
|Paraview                           |flow.vtu                           |
|Paraview surface                   |surface_flow.vtu                   |
+-----------------------------------------------------------------------+

Writing the forces breakdown file (forces_breakdown.dat).
+-------------------------------------------------------------------------------------------------------+
|  Inner_Iter|   Time_Iter|    rms[Rho]|   rms[RhoU]|   rms[RhoV]|   rms[RhoE]|          CL|          CD|
+-------------------------------------------------------------------------------------------------------+
|         161|           0|   -1.923585|    0.737160|    0.561208|    3.528196|    1.863947|    0.177402|
|         162|           0|   -1.934762|    0.736497|    0.569140|    3.512490|    1.862652|    0.176932|
|         163|           0|   -1.946016|    0.736284|    0.577112|    3.495767|    1.860124|    0.176324|
|         164|           0|   -1.956985|    0.736156|    0.584339|    3.478655|    1.856446|    0.175595|
|         165|           0|   -1.967432|    0.735761|    0.590216|    3.461653|    1.851736|    0.174767|
|         166|           0|   -1.976850|    0.734591|    0.594275|    3.445688|    1.846106|    0.173861|
|         167|           0|   -1.985046|    0.732350|    0.596191|    3.431408|    1.839690|    0.172900|
|         168|           0|   -1.992002|    0.728612|    0.595632|    3.419321|    1.832622|    0.171905|
|         169|           0|   -1.997739|    0.723111|    0.592388|    3.409802|    1.825048|    0.170900|
|         170|           0|   -2.002072|    0.715653|    0.586400|    3.403370|    1.817121|    0.169907|
+-----------------------------------------------------------------------+
|        File Writing Summary       |              Filename             |
+-----------------------------------------------------------------------+
|SU2 restart                        |solution_flow.dat                  |
|Paraview                           |flow.vtu                           |
|Paraview surface                   |surface_flow.vtu                   |
+-----------------------------------------------------------------------+

Writing the forces breakdown file (forces_breakdown.dat).
+-------------------------------------------------------------------------------------------------------+
|  Inner_Iter|   Time_Iter|    rms[Rho]|   rms[RhoU]|   rms[RhoV]|   rms[RhoE]|          CL|          CD|
+-------------------------------------------------------------------------------------------------------+
|         171|           0|   -2.005039|    0.706179|    0.577660|    3.400159|    1.808982|    0.168947|
|         172|           0|   -2.007156|    0.694648|    0.566242|    3.399505|    1.800790|    0.168042|
|         173|           0|   -2.008449|    0.681047|    0.552286|    3.401225|    1.792698|    0.167214|
|         174|           0|   -2.009375|    0.665513|    0.535842|    3.404437|    1.784835|    0.166476|
|         175|           0|   -2.010297|    0.648181|    0.517098|    3.408461|    1.777331|    0.165842|
|         176|           0|   -2.011585|    0.629224|    0.496454|    3.412537|    1.770299|    0.165322|
|         177|           0|   -2.013509|    0.608740|    0.474311|    3.416044|    1.763848|    0.164926|
|         178|           0|   -2.016102|    0.587158|    0.451438|    3.418766|    1.758077|    0.164660|
|         179|           0|   -2.019617|    0.565066|    0.428653|    3.420254|    1.753067|    0.164527|
|         180|           0|   -2.024264|    0.542952|    0.407128|    3.420079|    1.748880|    0.164528|
+-----------------------------------------------------------------------+
|        File Writing Summary       |              Filename             |
+-----------------------------------------------------------------------+
|SU2 restart                        |solution_flow.dat                  |
|Paraview                           |flow.vtu                           |
|Paraview surface                   |surface_flow.vtu                   |
+-----------------------------------------------------------------------+

Writing the forces breakdown file (forces_breakdown.dat).
+-------------------------------------------------------------------------------------------------------+
|  Inner_Iter|   Time_Iter|    rms[Rho]|   rms[RhoU]|   rms[RhoV]|   rms[RhoE]|          CL|          CD|
+-------------------------------------------------------------------------------------------------------+
|         181|           0|   -2.029990|    0.521539|    0.387976|    3.418214|    1.745575|    0.164660|
|         182|           0|   -2.037013|    0.501518|    0.372375|    3.414311|    1.743185|    0.164919|
|         183|           0|   -2.045207|    0.483850|    0.361247|    3.408505|    1.741727|    0.165295|
|         184|           0|   -2.054444|    0.469276|    0.354944|    3.400807|    1.741205|    0.165779|
|         185|           0|   -2.064497|    0.458404|    0.353473|    3.391418|    1.741615|    0.166359|
|         186|           0|   -2.074973|    0.451439|    0.356223|    3.380756|    1.742933|    0.167023|
|         187|           0|   -2.085760|    0.448286|    0.362193|    3.368869|    1.745123|    0.167755|
|         188|           0|   -2.096884|    0.448660|    0.370207|    3.355682|    1.748136|    0.168539|
|         189|           0|   -2.107835|    0.451954|    0.379183|    3.341833|    1.751915|    0.169358|
|         190|           0|   -2.118344|    0.457250|    0.388222|    3.327660|    1.756391|    0.170196|
+-----------------------------------------------------------------------+
|        File Writing Summary       |              Filename             |
+-----------------------------------------------------------------------+
|SU2 restart                        |solution_flow.dat                  |
|Paraview                           |flow.vtu                           |
|Paraview surface                   |surface_flow.vtu                   |
+-----------------------------------------------------------------------+

Writing the forces breakdown file (forces_breakdown.dat).
+-------------------------------------------------------------------------------------------------------+
|  Inner_Iter|   Time_Iter|    rms[Rho]|   rms[RhoU]|   rms[RhoV]|   rms[RhoE]|          CL|          CD|
+-------------------------------------------------------------------------------------------------------+
|         191|           0|   -2.128367|    0.463821|    0.396536|    3.313322|    1.761493|    0.171037|
|         192|           0|   -2.137769|    0.470730|    0.403506|    3.299172|    1.767139|    0.171864|
|         193|           0|   -2.146456|    0.477312|    0.408799|    3.285527|    1.773245|    0.172663|
|         194|           0|   -2.154048|    0.483074|    0.412061|    3.273122|    1.779717|    0.173418|
|         195|           0|   -2.160466|    0.487723|    0.413164|    3.262379|    1.786461|    0.174115|
|         196|           0|   -2.166118|    0.491026|    0.411954|    3.253140|    1.793379|    0.174738|
|         197|           0|   -2.170814|    0.492651|    0.408429|    3.245879|    1.800374|    0.175279|
|         198|           0|   -2.174731|    0.492468|    0.402552|    3.240543|    1.807345|    0.175723|
|         199|           0|   -2.178048|    0.490475|    0.394355|    3.237017|    1.814199|    0.176063|
|         200|           0|   -2.180781|    0.486619|    0.383924|    3.235248|    1.820847|    0.176292|
+-----------------------------------------------------------------------+
|        File Writing Summary       |              Filename             |
+-----------------------------------------------------------------------+
|SU2 restart                        |solution_flow.dat                  |
|Paraview                           |flow.vtu                           |
|Paraview surface                   |surface_flow.vtu                   |
+-----------------------------------------------------------------------+

Writing the forces breakdown file (forces_breakdown.dat).
+-------------------------------------------------------------------------------------------------------+
|  Inner_Iter|   Time_Iter|    rms[Rho]|   rms[RhoU]|   rms[RhoV]|   rms[RhoE]|          CL|          CD|
+-------------------------------------------------------------------------------------------------------+
|         201|           0|   -2.183215|    0.481027|    0.371175|    3.234804|    1.827207|    0.176404|
|         202|           0|   -2.185626|    0.473903|    0.356445|    3.235256|    1.833194|    0.176394|
|         203|           0|   -2.188295|    0.465427|    0.339936|    3.236066|    1.838744|    0.176264|
|         204|           0|   -2.191504|    0.455785|    0.321949|    3.236750|    1.843785|    0.176012|
|         205|           0|   -2.195217|    0.445013|    0.302856|    3.237164|    1.848269|    0.175641|
|         206|           0|   -2.199642|    0.433285|    0.283068|    3.236841|    1.852141|    0.175154|
|         207|           0|   -2.204935|    0.420913|    0.263308|    3.235429|    1.855370|    0.174556|
|         208|           0|   -2.211107|    0.408505|    0.244270|    3.232840|    1.857925|    0.173856|
|         209|           0|   -2.218212|    0.396640|    0.226835|    3.228905|    1.859793|    0.173062|
|         210|           0|   -2.226351|    0.385657|    0.211989|    3.223387|    1.860970|    0.172185|
+-----------------------------------------------------------------------+
|        File Writing Summary       |              Filename             |
+-----------------------------------------------------------------------+
|SU2 restart                        |solution_flow.dat                  |
|Paraview                           |flow.vtu                           |
|Paraview surface                   |surface_flow.vtu                   |
+-----------------------------------------------------------------------+

Writing the forces breakdown file (forces_breakdown.dat).
+-------------------------------------------------------------------------------------------------------+
|  Inner_Iter|   Time_Iter|    rms[Rho]|   rms[RhoU]|   rms[RhoV]|   rms[RhoE]|          CL|          CD|
+-------------------------------------------------------------------------------------------------------+
|         211|           0|   -2.235528|    0.375880|    0.200442|    3.216172|    1.861459|    0.171237|
|         212|           0|   -2.245580|    0.367531|    0.192656|    3.207328|    1.861276|    0.170230|
|         213|           0|   -2.256396|    0.360734|    0.188749|    3.196903|    1.860449|    0.169182|
|         214|           0|   -2.267855|    0.355512|    0.188438|    3.184943|    1.859006|    0.168103|
|         215|           0|   -2.279882|    0.351759|    0.191015|    3.171499|    1.856995|    0.167012|
|         216|           0|   -2.292152|    0.349246|    0.195599|    3.156807|    1.854462|    0.165922|
|         217|           0|   -2.304425|    0.347665|    0.201242|    3.141079|    1.851471|    0.164851|
|         218|           0|   -2.316325|    0.346695|    0.207094|    3.124812|    1.848075|    0.163811|
|         219|           0|   -2.327604|    0.345942|    0.212500|    3.108391|    1.844352|    0.162820|
|         220|           0|   -2.338082|    0.345064|    0.216874|    3.092238|    1.840364|    0.161889|
+-----------------------------------------------------------------------+
|        File Writing Summary       |              Filename             |
+-----------------------------------------------------------------------+
|SU2 restart                        |solution_flow.dat                  |
|Paraview                           |flow.vtu                           |
|Paraview surface                   |surface_flow.vtu                   |
+-----------------------------------------------------------------------+

Writing the forces breakdown file (forces_breakdown.dat).
+-------------------------------------------------------------------------------------------------------+
|  Inner_Iter|   Time_Iter|    rms[Rho]|   rms[RhoU]|   rms[RhoV]|   rms[RhoE]|          CL|          CD|
+-------------------------------------------------------------------------------------------------------+
|         221|           0|   -2.347592|    0.343482|    0.219790|    3.076840|    1.836193|    0.161035|
|         222|           0|   -2.356027|    0.341247|    0.220876|    3.062669|    1.831906|    0.160266|
|         223|           0|   -2.363323|    0.338081|    0.220069|    3.050219|    1.827579|    0.159595|
|         224|           0|   -2.369392|    0.333748|    0.217193|    3.039951|    1.823276|    0.159028|
|         225|           0|   -2.374275|    0.328066|    0.212113|    3.032139|    1.819073|    0.158574|
|         226|           0|   -2.378169|    0.320942|    0.204731|    3.026801|    1.815027|    0.158236|
|         227|           0|   -2.381415|    0.312274|    0.195002|    3.023616|    1.811207|    0.158020|
|         228|           0|   -2.383936|    0.301949|    0.183048|    3.022630|    1.807663|    0.157926|
|         229|           0|   -2.386004|    0.289848|    0.168945|    3.023347|    1.804456|    0.157957|
|         230|           0|   -2.387953|    0.276059|    0.152916|    3.025119|    1.801627|    0.158109|
+-----------------------------------------------------------------------+
|        File Writing Summary       |              Filename             |
+-----------------------------------------------------------------------+
|SU2 restart                        |solution_flow.dat                  |
|Paraview                           |flow.vtu                           |
|Paraview surface                   |surface_flow.vtu                   |
+-----------------------------------------------------------------------+

Writing the forces breakdown file (forces_breakdown.dat).
+-------------------------------------------------------------------------------------------------------+
|  Inner_Iter|   Time_Iter|    rms[Rho]|   rms[RhoU]|   rms[RhoV]|   rms[RhoE]|          CL|          CD|
+-------------------------------------------------------------------------------------------------------+
|         231|           0|   -2.390018|    0.260686|    0.135196|    3.027482|    1.799220|    0.158381|
|         232|           0|   -2.392399|    0.243819|    0.116143|    3.029938|    1.797264|    0.158767|
|         233|           0|   -2.395284|    0.225625|    0.096379|    3.032024|    1.795793|    0.159263|
|         234|           0|   -2.398795|    0.206463|    0.076545|    3.033395|    1.794819|    0.159859|
|         235|           0|   -2.403094|    0.186653|    0.057412|    3.033674|    1.794360|    0.160548|
|         236|           0|   -2.408364|    0.166690|    0.039918|    3.032521|    1.794417|    0.161320|
|         237|           0|   -2.414566|    0.147230|    0.025047|    3.029937|    1.794990|    0.162163|
|         238|           0|   -2.421691|    0.128946|    0.013618|    3.025793|    1.796065|    0.163066|
|         239|           0|   -2.429531|    0.112434|    0.006215|    3.020262|    1.797631|    0.164017|
|         240|           0|   -2.438108|    0.098322|    0.002990|    3.013216|    1.799659|    0.165001|
+-----------------------------------------------------------------------+
|        File Writing Summary       |              Filename             |
+-----------------------------------------------------------------------+
|SU2 restart                        |solution_flow.dat                  |
|Paraview                           |flow.vtu                           |
|Paraview surface                   |surface_flow.vtu                   |
+-----------------------------------------------------------------------+

Writing the forces breakdown file (forces_breakdown.dat).
+-------------------------------------------------------------------------------------------------------+
|  Inner_Iter|   Time_Iter|    rms[Rho]|   rms[RhoU]|   rms[RhoV]|   rms[RhoE]|          CL|          CD|
+-------------------------------------------------------------------------------------------------------+
|         241|           0|   -2.447179|    0.087104|    0.003739|    3.004850|    1.802126|    0.166008|
|         242|           0|   -2.456620|    0.079182|    0.007801|    2.995264|    1.804992|    0.167020|
|         243|           0|   -2.466373|    0.074599|    0.014456|    2.984491|    1.808222|    0.168028|
|         244|           0|   -2.476337|    0.072998|    0.022806|    2.972600|    1.811768|    0.169015|
|         245|           0|   -2.486312|    0.073989|    0.031998|    2.959832|    1.815587|    0.169971|
|         246|           0|   -2.495955|    0.077044|    0.041217|    2.946660|    1.819627|    0.170881|
|         247|           0|   -2.505011|    0.081395|    0.049833|    2.933526|    1.823838|    0.171736|
|         248|           0|   -2.513548|    0.086441|    0.057334|    2.920513|    1.828164|    0.172524|
|         249|           0|   -2.521385|    0.091543|    0.063356|    2.908055|    1.832557|    0.173237|
|         250|           0|   -2.528420|    0.096170|    0.067743|    2.896499|    1.836960|    0.173865|
+-----------------------------------------------------------------------+
|        File Writing Summary       |              Filename             |
+-----------------------------------------------------------------------+
|SU2 restart                        |solution_flow.dat                  |
|Paraview                           |flow.vtu                           |
|Paraview surface                   |surface_flow.vtu                   |
+-----------------------------------------------------------------------+

Writing the forces breakdown file (forces_breakdown.dat).
+-------------------------------------------------------------------------------------------------------+
|  Inner_Iter|   Time_Iter|    rms[Rho]|   rms[RhoU]|   rms[RhoV]|   rms[RhoE]|          CL|          CD|
+-------------------------------------------------------------------------------------------------------+
|         251|           0|   -2.534600|    0.099984|    0.070381|    2.886209|    1.841322|    0.174401|
|         252|           0|   -2.540072|    0.102727|    0.071197|    2.877315|    1.845589|    0.174839|
|         253|           0|   -2.544809|    0.104210|    0.070139|    2.870083|    1.849720|    0.175176|
|         254|           0|   -2.548932|    0.104272|    0.067254|    2.864524|    1.853662|    0.175406|
|         255|           0|   -2.552657|    0.102878|    0.062593|    2.860470|    1.857378|    0.175529|
|         256|           0|   -2.556164|    0.100035|    0.056223|    2.857718|    1.860826|    0.175544|
|         257|           0|   -2.559611|    0.095757|    0.048295|    2.856001|    1.863976|    0.175452|
|         258|           0|   -2.563243|    0.090157|    0.038977|    2.854916|    1.866795|    0.175256|
|         259|           0|   -2.567086|    0.083411|    0.028522|    2.854320|    1.869264|    0.174961|
|         260|           0|   -2.571335|    0.075714|    0.017202|    2.853809|    1.871361|    0.174569|
+-----------------------------------------------------------------------+
|        File Writing Summary       |              Filename             |
+-----------------------------------------------------------------------+
|SU2 restart                        |solution_flow.dat                  |
|Paraview                           |flow.vtu                           |
|Paraview surface                   |surface_flow.vtu                   |
+-----------------------------------------------------------------------+

Writing the forces breakdown file (forces_breakdown.dat).
+-------------------------------------------------------------------------------------------------------+
|  Inner_Iter|   Time_Iter|    rms[Rho]|   rms[RhoU]|   rms[RhoV]|   rms[RhoE]|          CL|          CD|
+-------------------------------------------------------------------------------------------------------+
|         261|           0|   -2.576258|    0.067293|    0.005347|    2.852882|    1.873076|    0.174089|
|         262|           0|   -2.581974|    0.058389|   -0.006706|    2.851232|    1.874401|    0.173528|
|         263|           0|   -2.588499|    0.049275|   -0.018555|    2.848684|    1.875337|    0.172895|
|         264|           0|   -2.596031|    0.040252|   -0.029812|    2.844871|    1.875884|    0.172197|
|         265|           0|   -2.604646|    0.031744|   -0.040122|    2.839572|    1.876055|    0.171447|
|         266|           0|   -2.614230|    0.023883|   -0.049163|    2.832834|    1.875860|    0.170654|
|         267|           0|   -2.624712|    0.016923|   -0.056704|    2.824631|    1.875319|    0.169829|
|         268|           0|   -2.636165|    0.011044|   -0.062659|    2.814774|    1.874455|    0.168982|
|         269|           0|   -2.648559|    0.006335|   -0.067021|    2.803194|    1.873292|    0.168127|
|         270|           0|   -2.661474|    0.002774|   -0.070000|    2.790284|    1.871860|    0.167273|
+-----------------------------------------------------------------------+
|        File Writing Summary       |              Filename             |
+-----------------------------------------------------------------------+
|SU2 restart                        |solution_flow.dat                  |
|Paraview                           |flow.vtu                           |
|Paraview surface                   |surface_flow.vtu                   |
+-----------------------------------------------------------------------+

Writing the forces breakdown file (forces_breakdown.dat).
+-------------------------------------------------------------------------------------------------------+
|  Inner_Iter|   Time_Iter|    rms[Rho]|   rms[RhoU]|   rms[RhoV]|   rms[RhoE]|          CL|          CD|
+-------------------------------------------------------------------------------------------------------+
|         271|           0|   -2.674676|    0.000271|   -0.071802|    2.776227|    1.870195|    0.166433|
|         272|           0|   -2.687976|   -0.001394|   -0.072737|    2.761154|    1.868326|    0.165615|
|         273|           0|   -2.701160|   -0.002476|   -0.073158|    2.745262|    1.866297|    0.164832|
|         274|           0|   -2.714072|   -0.003266|   -0.073414|    2.728692|    1.864139|    0.164092|
|         275|           0|   -2.726361|   -0.003993|   -0.073827|    2.711977|    1.861899|    0.163405|
|         276|           0|   -2.737926|   -0.004953|   -0.074672|    2.695374|    1.859609|    0.162778|
|         277|           0|   -2.748575|   -0.006373|   -0.076203|    2.679326|    1.857314|    0.162221|
|         278|           0|   -2.758103|   -0.008504|   -0.078609|    2.664351|    1.855048|    0.161737|
|         279|           0|   -2.766448|   -0.011541|   -0.082018|    2.650882|    1.852852|    0.161332|
|         280|           0|   -2.773606|   -0.015604|   -0.086498|    2.639270|    1.850758|    0.161011|
+-----------------------------------------------------------------------+
|        File Writing Summary       |              Filename             |
+-----------------------------------------------------------------------+
|SU2 restart                        |solution_flow.dat                  |
|Paraview                           |flow.vtu                           |
|Paraview surface                   |surface_flow.vtu                   |
+-----------------------------------------------------------------------+

Writing the forces breakdown file (forces_breakdown.dat).
+-------------------------------------------------------------------------------------------------------+
|  Inner_Iter|   Time_Iter|    rms[Rho]|   rms[RhoU]|   rms[RhoV]|   rms[RhoE]|          CL|          CD|
+-------------------------------------------------------------------------------------------------------+
|         281|           0|   -2.779574|   -0.020781|   -0.092096|    2.629842|    1.848800|    0.160776|
|         282|           0|   -2.784467|   -0.027209|   -0.098816|    2.622736|    1.847007|    0.160628|
|         283|           0|   -2.788492|   -0.034945|   -0.106611|    2.617886|    1.845408|    0.160569|
|         284|           0|   -2.791786|   -0.044043|   -0.115382|    2.615138|    1.844023|    0.160597|
|         285|           0|   -2.794585|   -0.054483|   -0.124993|    2.614135|    1.842878|    0.160712|
|         286|           0|   -2.797132|   -0.066212|   -0.135230|    2.614434|    1.841986|    0.160909|
|         287|           0|   -2.799672|   -0.079158|   -0.145846|    2.615525|    1.841361|    0.161187|
|         288|           0|   -2.802395|   -0.093181|   -0.156542|    2.616961|    1.841010|    0.161538|
|         289|           0|   -2.805423|   -0.108121|   -0.166972|    2.618384|    1.840941|    0.161959|
|         290|           0|   -2.808920|   -0.123777|   -0.176810|    2.619408|    1.841151|    0.162441|
+-----------------------------------------------------------------------+
|        File Writing Summary       |              Filename             |
+-----------------------------------------------------------------------+
|SU2 restart                        |solution_flow.dat                  |
|Paraview                           |flow.vtu                           |
|Paraview surface                   |surface_flow.vtu                   |
+-----------------------------------------------------------------------+

Writing the forces breakdown file (forces_breakdown.dat).
+-------------------------------------------------------------------------------------------------------+
|  Inner_Iter|   Time_Iter|    rms[Rho]|   rms[RhoU]|   rms[RhoV]|   rms[RhoE]|          CL|          CD|
+-------------------------------------------------------------------------------------------------------+
|         291|           0|   -2.813048|   -0.139886|   -0.185698|    2.619676|    1.841640|    0.162980|
|         292|           0|   -2.817861|   -0.156153|   -0.193310|    2.618982|    1.842399|    0.163565|
|         293|           0|   -2.823342|   -0.172194|   -0.199384|    2.617216|    1.843422|    0.164189|
|         294|           0|   -2.829548|   -0.187608|   -0.203742|    2.614220|    1.844693|    0.164845|
|         295|           0|   -2.836422|   -0.201963|   -0.206328|    2.609956|    1.846197|    0.165522|
|         296|           0|   -2.843956|   -0.214872|   -0.207182|    2.604364|    1.847914|    0.166212|
|         297|           0|   -2.852013|   -0.225992|   -0.206454|    2.597534|    1.849825|    0.166907|
|         298|           0|   -2.860488|   -0.235036|   -0.204386|    2.589540|    1.851903|    0.167597|
|         299|           0|   -2.869267|   -0.241858|   -0.201265|    2.580482|    1.854127|    0.168274|
|         300|           0|   -2.878244|   -0.246531|   -0.197409|    2.570459|    1.856467|    0.168930|
+-----------------------------------------------------------------------+
|        File Writing Summary       |              Filename             |
+-----------------------------------------------------------------------+
|SU2 restart                        |solution_flow.dat                  |
|Paraview                           |flow.vtu                           |
|Paraview surface                   |surface_flow.vtu                   |
+-----------------------------------------------------------------------+

Writing the forces breakdown file (forces_breakdown.dat).
+-------------------------------------------------------------------------------------------------------+
|  Inner_Iter|   Time_Iter|    rms[Rho]|   rms[RhoU]|   rms[RhoV]|   rms[RhoE]|          CL|          CD|
+-------------------------------------------------------------------------------------------------------+
|         301|           0|   -2.887299|   -0.249226|   -0.193136|    2.559614|    1.858898|    0.169557|
|         302|           0|   -2.896321|   -0.250221|   -0.188750|    2.548108|    1.861392|    0.170148|
|         303|           0|   -2.905055|   -0.249860|   -0.184525|    2.536314|    1.863920|    0.170696|
|         304|           0|   -2.913347|   -0.248541|   -0.180699|    2.524544|    1.866456|    0.171196|
|         305|           0|   -2.921014|   -0.246773|   -0.177440|    2.513191|    1.868972|    0.171643|
|         306|           0|   -2.928083|   -0.244806|   -0.174893|    2.502409|    1.871442|    0.172031|
|         307|           0|   -2.934621|   -0.242888|   -0.173153|    2.492338|    1.873841|    0.172357|
|         308|           0|   -2.940640|   -0.241286|   -0.172270|    2.483197|    1.876145|    0.172619|
|         309|           0|   -2.946190|   -0.240216|   -0.172273|    2.475125|    1.878333|    0.172816|
|         310|           0|   -2.951387|   -0.239817|   -0.173152|    2.468148|    1.880386|    0.172945|
+-----------------------------------------------------------------------+
|        File Writing Summary       |              Filename             |
+-----------------------------------------------------------------------+
|SU2 restart                        |solution_flow.dat                  |
|Paraview                           |flow.vtu                           |
|Paraview surface                   |surface_flow.vtu                   |
+-----------------------------------------------------------------------+

Writing the forces breakdown file (forces_breakdown.dat).
+-------------------------------------------------------------------------------------------------------+
|  Inner_Iter|   Time_Iter|    rms[Rho]|   rms[RhoU]|   rms[RhoV]|   rms[RhoE]|          CL|          CD|
+-------------------------------------------------------------------------------------------------------+
|         311|           0|   -2.956360|   -0.240188|   -0.174873|    2.462214|    1.882286|    0.173008|
|         312|           0|   -2.961226|   -0.241348|   -0.177382|    2.457242|    1.884017|    0.173004|
|         313|           0|   -2.966220|   -0.243273|   -0.180607|    2.452960|    1.885570|    0.172936|
|         314|           0|   -2.971408|   -0.245930|   -0.184463|    2.449259|    1.886933|    0.172805|
|         315|           0|   -2.976925|   -0.249262|   -0.188848|    2.445899|    1.888099|    0.172615|
|         316|           0|   -2.982933|   -0.253187|   -0.193654|    2.442583|    1.889064|    0.172370|
|         317|           0|   -2.989587|   -0.257593|   -0.198777|    2.438996|    1.889827|    0.172074|
|         318|           0|   -2.996981|   -0.262359|   -0.204097|    2.434909|    1.890390|    0.171733|
|         319|           0|   -3.005191|   -0.267345|   -0.209492|    2.430115|    1.890754|    0.171351|
|         320|           0|   -3.014257|   -0.272431|   -0.214871|    2.424448|    1.890926|    0.170934|
+-----------------------------------------------------------------------+
|        File Writing Summary       |              Filename             |
+-----------------------------------------------------------------------+
|SU2 restart                        |solution_flow.dat                  |
|Paraview                           |flow.vtu                           |
|Paraview surface                   |surface_flow.vtu                   |
+-----------------------------------------------------------------------+

Writing the forces breakdown file (forces_breakdown.dat).
+-------------------------------------------------------------------------------------------------------+
|  Inner_Iter|   Time_Iter|    rms[Rho]|   rms[RhoU]|   rms[RhoV]|   rms[RhoE]|          CL|          CD|
+-------------------------------------------------------------------------------------------------------+
|         321|           0|   -3.024141|   -0.277462|   -0.220147|    2.417833|    1.890916|    0.170490|
|         322|           0|   -3.034902|   -0.282318|   -0.225263|    2.410080|    1.890734|    0.170025|
|         323|           0|   -3.046470|   -0.286899|   -0.230170|    2.401159|    1.890392|    0.169544|
|         324|           0|   -3.058840|   -0.291135|   -0.234838|    2.390948|    1.889905|    0.169055|
|         325|           0|   -3.071854|   -0.294983|   -0.239268|    2.379549|    1.889289|    0.168564|
|         326|           0|   -3.085376|   -0.298433|   -0.243476|    2.367004|    1.888561|    0.168077|
|         327|           0|   -3.099271|   -0.301509|   -0.247496|    2.353388|    1.887739|    0.167602|
|         328|           0|   -3.113375|   -0.304267|   -0.251373|    2.338785|    1.886841|    0.167143|
|         329|           0|   -3.127674|   -0.306810|   -0.255154|    2.323055|    1.885888|    0.166707|
|         330|           0|   -3.141760|   -0.309201|   -0.258902|    2.306711|    1.884899|    0.166299|
+-----------------------------------------------------------------------+
|        File Writing Summary       |              Filename             |
+-----------------------------------------------------------------------+
|SU2 restart                        |solution_flow.dat                  |
|Paraview                           |flow.vtu                           |
|Paraview surface                   |surface_flow.vtu                   |
+-----------------------------------------------------------------------+

Writing the forces breakdown file (forces_breakdown.dat).
+-------------------------------------------------------------------------------------------------------+
|  Inner_Iter|   Time_Iter|    rms[Rho]|   rms[RhoU]|   rms[RhoV]|   rms[RhoE]|          CL|          CD|
+-------------------------------------------------------------------------------------------------------+
|         331|           0|   -3.155420|   -0.311552|   -0.262679|    2.290003|    1.883891|    0.165922|
|         332|           0|   -3.168491|   -0.313979|   -0.266547|    2.273176|    1.882886|    0.165583|
|         333|           0|   -3.180784|   -0.316607|   -0.270561|    2.256552|    1.881901|    0.165283|
|         334|           0|   -3.192142|   -0.319561|   -0.274759|    2.240479|    1.880953|    0.165027|
|         335|           0|   -3.202426|   -0.322938|   -0.279175|    2.225359|    1.880060|    0.164816|
|         336|           0|   -3.211544|   -0.326833|   -0.283836|    2.211567|    1.879236|    0.164652|
|         337|           0|   -3.219447|   -0.331318|   -0.288746|    2.199465|    1.878495|    0.164537|
|         338|           0|   -3.226186|   -0.336449|   -0.293879|    2.189294|    1.877851|    0.164471|
|         339|           0|   -3.231808|   -0.342268|   -0.299207|    2.181242|    1.877312|    0.164453|
|         340|           0|   -3.236439|   -0.348797|   -0.304676|    2.175317|    1.876890|    0.164484|
+-----------------------------------------------------------------------+
|        File Writing Summary       |              Filename             |
+-----------------------------------------------------------------------+
|SU2 restart                        |solution_flow.dat                  |
|Paraview                           |flow.vtu                           |
|Paraview surface                   |surface_flow.vtu                   |
+-----------------------------------------------------------------------+

Writing the forces breakdown file (forces_breakdown.dat).
+-------------------------------------------------------------------------------------------------------+
|  Inner_Iter|   Time_Iter|    rms[Rho]|   rms[RhoU]|   rms[RhoV]|   rms[RhoE]|          CL|          CD|
+-------------------------------------------------------------------------------------------------------+
|         341|           0|   -3.240247|   -0.356030|   -0.310216|    2.171390|    1.876590|    0.164561|
|         342|           0|   -3.243423|   -0.363943|   -0.315762|    2.169206|    1.876418|    0.164683|
|         343|           0|   -3.246248|   -0.372487|   -0.321233|    2.168329|    1.876379|    0.164847|
|         344|           0|   -3.248948|   -0.381607|   -0.326546|    2.168343|    1.876473|    0.165050|
|         345|           0|   -3.251633|   -0.391220|   -0.331608|    2.168949|    1.876700|    0.165289|
|         346|           0|   -3.254450|   -0.401230|   -0.336346|    2.169789|    1.877060|    0.165560|
|         347|           0|   -3.257522|   -0.411512|   -0.340692|    2.170554|    1.877548|    0.165860|
|         348|           0|   -3.260955|   -0.421927|   -0.344585|    2.170961|    1.878159|    0.166183|
|         349|           0|   -3.264823|   -0.432320|   -0.347994|    2.170777|    1.878887|    0.166526|
[...]
|         905|           0|   -4.349113|   -1.757885|   -1.928396|    1.149927|    1.942513|    0.170713|
|         906|           0|   -4.268369|   -1.459922|   -1.850773|    1.266188|    1.942519|    0.170713|
|         907|           0|   -4.230008|   -1.301767|   -1.770485|    1.329140|    1.942525|    0.170713|
|         908|           0|   -4.235778|   -1.226419|   -1.716039|    1.340823|    1.942530|    0.170713|
|         909|           0|   -4.277359|   -1.207601|   -1.695425|    1.308722|    1.942537|    0.170713|
|         910|           0|   -4.337467|   -1.230425|   -1.708829|    1.242959|    1.942542|    0.170714|
+-----------------------------------------------------------------------+
|        File Writing Summary       |              Filename             |
+-----------------------------------------------------------------------+
|SU2 restart                        |solution_flow.dat                  |
|Paraview                           |flow.vtu                           |
|Paraview surface                   |surface_flow.vtu                   |
+-----------------------------------------------------------------------+

Writing the forces breakdown file (forces_breakdown.dat).
+-------------------------------------------------------------------------------------------------------+
|  Inner_Iter|   Time_Iter|    rms[Rho]|   rms[RhoU]|   rms[RhoV]|   rms[RhoE]|          CL|          CD|
+-------------------------------------------------------------------------------------------------------+
|         911|           0|   -4.393019|   -1.287183|   -1.754544|    1.155034|    1.942548|    0.170714|
|         912|           0|   -4.421115|   -1.376406|   -1.826841|    1.065903|    1.942553|    0.170714|
|         913|           0|   -4.410472|   -1.501912|   -1.905830|    1.021721|    1.942559|    0.170714|
|         914|           0|   -4.371025|   -1.669619|   -1.950641|    1.055271|    1.942564|    0.170714|
|         915|           0|   -4.320239|   -1.834892|   -1.936899|    1.132695|    1.942570|    0.170714|
|         916|           0|   -4.267489|   -1.750400|   -1.887627|    1.217722|    1.942575|    0.170714|
|         917|           0|   -4.212433|   -1.512836|   -1.823231|    1.303116|    1.942581|    0.170715|
|         918|           0|   -4.149187|   -1.300969|   -1.745875|    1.393486|    1.942585|    0.170714|
|         919|           0|   -4.078425|   -1.124957|   -1.656769|    1.486896|    1.942591|    0.170714|
|         920|           0|   -4.218899|   -1.178154|   -1.692180|    1.362056|    1.942596|    0.170714|
+-----------------------------------------------------------------------+
|        File Writing Summary       |              Filename             |
+-----------------------------------------------------------------------+
|SU2 restart                        |solution_flow.dat                  |
|Paraview                           |flow.vtu                           |
|Paraview surface                   |surface_flow.vtu                   |
+-----------------------------------------------------------------------+

Writing the forces breakdown file (forces_breakdown.dat).
+-------------------------------------------------------------------------------------------------------+
|  Inner_Iter|   Time_Iter|    rms[Rho]|   rms[RhoU]|   rms[RhoV]|   rms[RhoE]|          CL|          CD|
+-------------------------------------------------------------------------------------------------------+
|         921|           0|   -4.376747|   -1.284498|   -1.763099|    1.190803|    1.942602|    0.170715|
|         922|           0|   -4.437165|   -1.389205|   -1.829600|    1.069434|    1.942607|    0.170715|
|         923|           0|   -4.434363|   -1.490372|   -1.886135|    1.016740|    1.942612|    0.170715|
|         924|           0|   -4.427874|   -1.585710|   -1.931048|    0.999424|    1.942616|    0.170714|
|         925|           0|   -4.437614|   -1.671070|   -1.963741|    0.983486|    1.942621|    0.170715|
|         926|           0|   -4.466065|   -1.740563|   -1.984975|    0.955460|    1.942626|    0.170715|
|         927|           0|   -4.510150|   -1.790122|   -1.997509|    0.914762|    1.942632|    0.170715|
|         928|           0|   -4.437809|   -2.042897|   -2.003204|    1.021599|    1.942636|    0.170715|
|         929|           0|   -4.331717|   -1.695022|   -1.950935|    1.174537|    1.942641|    0.170715|
|         930|           0|   -4.257466|   -1.424599|   -1.857243|    1.282064|    1.942646|    0.170715|
+-----------------------------------------------------------------------+
|        File Writing Summary       |              Filename             |
+-----------------------------------------------------------------------+
|SU2 restart                        |solution_flow.dat                  |
|Paraview                           |flow.vtu                           |
|Paraview surface                   |surface_flow.vtu                   |
+-----------------------------------------------------------------------+

Writing the forces breakdown file (forces_breakdown.dat).
+-------------------------------------------------------------------------------------------------------+
|  Inner_Iter|   Time_Iter|    rms[Rho]|   rms[RhoU]|   rms[RhoV]|   rms[RhoE]|          CL|          CD|
+-------------------------------------------------------------------------------------------------------+
|         931|           0|   -4.226811|   -1.283081|   -1.772492|    1.335885|    1.942651|    0.170716|
|         932|           0|   -4.239721|   -1.218897|   -1.720149|    1.339285|    1.942656|    0.170716|
|         933|           0|   -4.286145|   -1.208210|   -1.704376|    1.300473|    1.942661|    0.170716|
|         934|           0|   -4.347303|   -1.237410|   -1.724178|    1.229909|    1.942665|    0.170716|
|         935|           0|   -4.399473|   -1.299930|   -1.777724|    1.139825|    1.942670|    0.170717|
|         936|           0|   -4.421237|   -1.395350|   -1.858611|    1.054330|    1.942675|    0.170717|
|         937|           0|   -4.404655|   -1.528470|   -1.942879|    1.022758|    1.942680|    0.170718|
|         938|           0|   -4.362316|   -1.704408|   -1.982339|    1.067252|    1.942685|    0.170717|
|         939|           0|   -4.310624|   -1.850411|   -1.956735|    1.147865|    1.942690|    0.170718|
|         940|           0|   -4.257918|   -1.713907|   -1.897839|    1.232682|    1.942695|    0.170718|
+-----------------------------------------------------------------------+
|        File Writing Summary       |              Filename             |
+-----------------------------------------------------------------------+
|SU2 restart                        |solution_flow.dat                  |
|Paraview                           |flow.vtu                           |
|Paraview surface                   |surface_flow.vtu                   |
+-----------------------------------------------------------------------+

Writing the forces breakdown file (forces_breakdown.dat).
+-------------------------------------------------------------------------------------------------------+
|  Inner_Iter|   Time_Iter|    rms[Rho]|   rms[RhoU]|   rms[RhoV]|   rms[RhoE]|          CL|          CD|
+-------------------------------------------------------------------------------------------------------+
|         941|           0|   -4.201796|   -1.474383|   -1.825703|    1.318647|    1.942700|    0.170718|
|         942|           0|   -4.136928|   -1.268247|   -1.741402|    1.409973|    1.942705|    0.170718|
|         943|           0|   -4.065948|   -1.098019|   -1.647678|    1.502755|    1.942711|    0.170719|
|         944|           0|   -4.256406|   -1.200607|   -1.714031|    1.324949|    1.942715|    0.170719|
|         945|           0|   -4.394814|   -1.307137|   -1.789218|    1.161687|    1.942721|    0.170719|
|         946|           0|   -4.435684|   -1.411670|   -1.858966|    1.055944|    1.942725|    0.170720|
|         947|           0|   -4.429210|   -1.512401|   -1.918689|    1.014332|    1.942730|    0.170720|
|         948|           0|   -4.426023|   -1.606824|   -1.966521|    0.998943|    1.942734|    0.170720|
|         949|           0|   -4.440205|   -1.690303|   -2.001279|    0.980536|    1.942739|    0.170720|
|         950|           0|   -4.472527|   -1.756718|   -2.023484|    0.949394|    1.942743|    0.170720|
+-----------------------------------------------------------------------+
|        File Writing Summary       |              Filename             |
+-----------------------------------------------------------------------+
|SU2 restart                        |solution_flow.dat                  |
|Paraview                           |flow.vtu                           |
|Paraview surface                   |surface_flow.vtu                   |
+-----------------------------------------------------------------------+

Writing the forces breakdown file (forces_breakdown.dat).
+-------------------------------------------------------------------------------------------------------+
|  Inner_Iter|   Time_Iter|    rms[Rho]|   rms[RhoU]|   rms[RhoV]|   rms[RhoE]|          CL|          CD|
+-------------------------------------------------------------------------------------------------------+
|         951|           0|   -4.518992|   -1.802810|   -2.036337|    0.906866|    1.942748|    0.170721|
|         952|           0|   -4.415811|   -2.037193|   -2.035072|    1.052624|    1.942753|    0.170721|
|         953|           0|   -4.313429|   -1.632444|   -1.960276|    1.199858|    1.942757|    0.170721|
|         954|           0|   -4.246407|   -1.389898|   -1.854144|    1.297998|    1.942762|    0.170721|
|         955|           0|   -4.223874|   -1.264649|   -1.768575|    1.342338|    1.942766|    0.170721|
|         956|           0|   -4.243950|   -1.211589|   -1.720332|    1.337300|    1.942770|    0.170721|
|         957|           0|   -4.294696|   -1.209102|   -1.710430|    1.291837|    1.942775|    0.170721|
|         958|           0|   -4.356237|   -1.244855|   -1.737181|    1.216511|    1.942778|    0.170721|
|         959|           0|   -4.404557|   -1.313446|   -1.798698|    1.124524|    1.942782|    0.170722|
|         960|           0|   -4.419343|   -1.415495|   -1.887357|    1.044648|    1.942786|    0.170722|
+-----------------------------------------------------------------------+
|        File Writing Summary       |              Filename             |
+-----------------------------------------------------------------------+
|SU2 restart                        |solution_flow.dat                  |
|Paraview                           |flow.vtu                           |
|Paraview surface                   |surface_flow.vtu                   |
+-----------------------------------------------------------------------+

Writing the forces breakdown file (forces_breakdown.dat).
+-------------------------------------------------------------------------------------------------------+
|  Inner_Iter|   Time_Iter|    rms[Rho]|   rms[RhoU]|   rms[RhoV]|   rms[RhoE]|          CL|          CD|
+-------------------------------------------------------------------------------------------------------+
|         961|           0|   -4.396763|   -1.556704|   -1.973671|    1.027471|    1.942790|    0.170722|
|         962|           0|   -4.352025|   -1.739504|   -2.003179|    1.081791|    1.942794|    0.170722|
|         963|           0|   -4.299764|   -1.851734|   -1.965152|    1.164555|    1.942797|    0.170722|
|         964|           0|   -4.247199|   -1.671321|   -1.898510|    1.248906|    1.942801|    0.170721|
|         965|           0|   -4.189926|   -1.434540|   -1.820444|    1.335489|    1.942805|    0.170722|
|         966|           0|   -4.123343|   -1.234589|   -1.730877|    1.427782|    1.942808|    0.170721|
|         967|           0|   -4.091088|   -1.109444|   -1.660691|    1.480425|    1.942813|    0.170721|
|         968|           0|   -4.282807|   -1.215947|   -1.732699|    1.298608|    1.942816|    0.170721|
|         969|           0|   -4.408251|   -1.322367|   -1.810329|    1.140659|    1.942820|    0.170721|
|         970|           0|   -4.437354|   -1.426605|   -1.882494|    1.045203|    1.942823|    0.170721|
+-----------------------------------------------------------------------+
|        File Writing Summary       |              Filename             |
+-----------------------------------------------------------------------+
|SU2 restart                        |solution_flow.dat                  |
|Paraview                           |flow.vtu                           |
|Paraview surface                   |surface_flow.vtu                   |
+-----------------------------------------------------------------------+

Writing the forces breakdown file (forces_breakdown.dat).
+-------------------------------------------------------------------------------------------------------+
|  Inner_Iter|   Time_Iter|    rms[Rho]|   rms[RhoU]|   rms[RhoV]|   rms[RhoE]|          CL|          CD|
+-------------------------------------------------------------------------------------------------------+
|         971|           0|   -4.428603|   -1.526879|   -1.944950|    1.010565|    1.942827|    0.170721|
|         972|           0|   -4.427292|   -1.620454|   -1.995427|    0.996295|    1.942830|    0.170722|
|         973|           0|   -4.444050|   -1.702356|   -2.032138|    0.976499|    1.942833|    0.170722|
|         974|           0|   -4.478839|   -1.766448|   -2.055359|    0.943365|    1.942836|    0.170722|
|         975|           0|   -4.510865|   -1.846781|   -2.070538|    0.918476|    1.942840|    0.170722|
|         976|           0|   -4.399685|   -1.992400|   -2.057015|    1.076337|    1.942843|    0.170722|
|         977|           0|   -4.301593|   -1.587189|   -1.963204|    1.217167|    1.942847|    0.170723|
|         978|           0|   -4.241048|   -1.366484|   -1.850342|    1.307131|    1.942850|    0.170723|
|         979|           0|   -4.225244|   -1.253819|   -1.766388|    1.343695|    1.942853|    0.170723|
|         980|           0|   -4.250841|   -1.209303|   -1.722519|    1.332040|    1.942856|    0.170723|
+-----------------------------------------------------------------------+
|        File Writing Summary       |              Filename             |
+-----------------------------------------------------------------------+
|SU2 restart                        |solution_flow.dat                  |
|Paraview                           |flow.vtu                           |
|Paraview surface                   |surface_flow.vtu                   |
+-----------------------------------------------------------------------+

Writing the forces breakdown file (forces_breakdown.dat).
+-------------------------------------------------------------------------------------------------------+
|  Inner_Iter|   Time_Iter|    rms[Rho]|   rms[RhoU]|   rms[RhoV]|   rms[RhoE]|          CL|          CD|
+-------------------------------------------------------------------------------------------------------+
|         981|           0|   -4.304545|   -1.213063|   -1.717883|    1.281515|    1.942861|    0.170723|
|         982|           0|   -4.365689|   -1.253875|   -1.750572|    1.202738|    1.942864|    0.170723|
|         983|           0|   -4.410111|   -1.327318|   -1.818701|    1.110046|    1.942868|    0.170723|
|         984|           0|   -4.419116|   -1.434897|   -1.913342|    1.036061|    1.942871|    0.170723|
|         985|           0|   -4.391884|   -1.583110|   -1.999614|    1.031087|    1.942875|    0.170723|
|         986|           0|   -4.345262|   -1.770500|   -2.018931|    1.092554|    1.942878|    0.170723|
|         987|           0|   -4.292437|   -1.844892|   -1.970927|    1.176766|    1.942882|    0.170724|
|         988|           0|   -4.239624|   -1.635755|   -1.898344|    1.261086|    1.942885|    0.170724|
|         989|           0|   -4.181070|   -1.402773|   -1.815442|    1.348505|    1.942889|    0.170724|
|         990|           0|   -4.113153|   -1.208117|   -1.721819|    1.441468|    1.942892|    0.170724|
+-----------------------------------------------------------------------+
|        File Writing Summary       |              Filename             |
+-----------------------------------------------------------------------+
|SU2 restart                        |solution_flow.dat                  |
|Paraview                           |flow.vtu                           |
|Paraview surface                   |surface_flow.vtu                   |
+-----------------------------------------------------------------------+

Writing the forces breakdown file (forces_breakdown.dat).
+-------------------------------------------------------------------------------------------------------+
|  Inner_Iter|   Time_Iter|    rms[Rho]|   rms[RhoU]|   rms[RhoV]|   rms[RhoE]|          CL|          CD|
+-------------------------------------------------------------------------------------------------------+
|         991|           0|   -4.117707|   -1.123439|   -1.674712|    1.456278|    1.942895|    0.170725|
|         992|           0|   -4.305629|   -1.230032|   -1.749570|    1.275127|    1.942899|    0.170725|
|         993|           0|   -4.418713|   -1.336303|   -1.829030|    1.122727|    1.942902|    0.170725|
|         994|           0|   -4.438680|   -1.440230|   -1.903064|    1.036398|    1.942905|    0.170725|
|         995|           0|   -4.428868|   -1.540008|   -1.967628|    1.007012|    1.942909|    0.170725|
|         996|           0|   -4.429496|   -1.632697|   -2.020061|    0.993118|    1.942913|    0.170726|
|         997|           0|   -4.448585|   -1.713029|   -2.058077|    0.971827|    1.942916|    0.170726|
|         998|           0|   -4.485515|   -1.774972|   -2.081837|    0.936855|    1.942919|    0.170726|
|         999|           0|   -4.495980|   -1.908266|   -2.098888|    0.938671|    1.942922|    0.170726|

----------------------------- Solver Exit -------------------------------

Maximum number of iterations reached (ITER = 1000) before convergence.
+-----------------------------------------------------------------------+
|      Convergence Field     |     Value    |   Criterion  |  Converged |
+-----------------------------------------------------------------------+
|                  Cauchy[CD]|   1.16829e-06|       < 1e-10|          No|
+-----------------------------------------------------------------------+
-------------------------------------------------------------------------
+-----------------------------------------------------------------------+
|        File Writing Summary       |              Filename             |
+-----------------------------------------------------------------------+
|SU2 restart                        |solution_flow.dat                  |
|Paraview                           |flow.vtu                           |
|Paraview surface                   |surface_flow.vtu                   |
+-----------------------------------------------------------------------+

Writing the forces breakdown file (forces_breakdown.dat).

------------------------- Solver Postprocessing -------------------------
Deleted CNumerics container.
Deleted CIntegration container.
Deleted CSolver container.
Deleted CIteration container.
Deleted CInterpolator container.
Deleted CInterface container.
Deleted CGeometry container.
Deleted CFreeFormDefBox class.
Deleted CSurfaceMovement class.
Deleted CVolumetricMovement class.
Deleted CConfig container.
Deleted nInst container.
Deleted COutput class.
-------------------------------------------------------------------------

------------------------- Exit Success (SU2_CFD) ------------------------

