
-------------------------------------------------------------------------
|    ___ _   _ ___                                                      |
|   / __| | | |_  )   Release 7.0.3 "Blackbird"                         |
|   \__ \ |_| |/ /                                                      |
|   |___/\___//___|   Suite (Computational Fluid Dynamics Code)         |
|                                                                       |
-------------------------------------------------------------------------
| SU2 Project Website: https://su2code.github.io                        |
|                                                                       |
| The SU2 Project is maintained by the SU2 Foundation                   |
| (http://su2foundation.org)                                            |
-------------------------------------------------------------------------
| Copyright 2012-2020, SU2 Contributors                                 |
|                                                                       |
| SU2 is free software; you can redistribute it and/or                  |
| modify it under the terms of the GNU Lesser General Public            |
| License as published by the Free Software Foundation; either          |
| version 2.1 of the License, or (at your option) any later version.    |
|                                                                       |
| SU2 is distributed in the hope that it will be useful,                |
| but WITHOUT ANY WARRANTY; without even the implied warranty of        |
| MERCHANTABILITY or FITNESS FOR A PARTICULAR PURPOSE. See the GNU      |
| Lesser General Public License for more details.                       |
|                                                                       |
| You should have received a copy of the GNU Lesser General Public      |
| License along with SU2. If not, see <http://www.gnu.org/licenses/>.   |
-------------------------------------------------------------------------

Parsing config file for zone 0

----------------- Physical Case Definition ( Zone 0 ) -------------------
Compressible Euler equations.
Mach number: 0.294.
Angle of attack (AoA): 10 deg, and angle of sideslip (AoS): 0 deg.
No restart solution, use the values at infinity (freestream).
Dimensional simulation.
The reference area is 10 m^2.
The semi-span will be computed using the max y(3D) value.
The reference length is 1 m.
Reference origin for moment evaluation is (0, 0, 0).
Surface(s) where the force coefficients are evaluated: Wing_1.

Surface(s) where the objective function is evaluated: airfoil.
Surface(s) plotted in the output file: Wing_1.
Surface(s) to be analyzed in detail: airfoil.
Surface(s) affected by the design variables: Wing_1.
Input mesh file name: deformed.su2

--------------- Space Numerical Integration ( Zone 0 ) ------------------
Roe (with entropy fix = 0) solver for the flow inviscid terms.
Roe with DDES's FD low-dissipation function.
Second order integration in space, with slope limiter.
Venkatakrishnan slope-limiting method, with constant: 0.05. 
The reference element size is: 1. 
Gradient for upwind reconstruction: Green-Gauss.
Gradient for viscous and source terms: Green-Gauss.

--------------- Time Numerical Integration  ( Zone 0 ) ------------------
Local time stepping (steady state simulation).
Euler implicit method for the flow equations.
FGMRES is used for solving the linear system.
Using a ILU(0) preconditioning.
Convergence criteria of the linear solver: 1e-06.
Max number of linear iterations: 5.
V Multigrid Cycle, with 3 multigrid levels.
Damping factor for the residual restriction: 0.75.
Damping factor for the correction prolongation: 0.75.
No CFL adaptation.
+-------------------------------------------+
|  MG Level| Presmooth|PostSmooth|CorrectSmo|
+-------------------------------------------+
|         0|         1|         0|         0|
|         1|         2|         0|         0|
|         2|         3|         0|         0|
|         3|         3|         0|         0|
+-------------------------------------------+
Courant-Friedrichs-Lewy number:        1

------------------ Convergence Criteria  ( Zone 0 ) ---------------------
Maximum number of solver subiterations: 1000.
Begin convergence monitoring at iteration 10.
Residual minimum value: 1e-8.
Cauchy series min. value: 1e-10.
Number of Cauchy elements: 100.
Begin windowed time average at iteration 15.

-------------------- Output Information ( Zone 0 ) ----------------------
Writing solution files every 10 iterations.
Writing the convergence history file every 1 inner iterations.
Writing the screen convergence history every 1 inner iterations.
The tabular file format is Tecplot (.dat).
Convergence history file name: history.
Forces breakdown file name: forces_breakdown.dat.
Surface file name: surface_flow.
Volume file name: flow.
Restart file name: solution_flow.dat.

------------- Config File Boundary Information ( Zone 0 ) ---------------
+-----------------------------------------------------------------------+
|                        Marker Type|                        Marker Name|
+-----------------------------------------------------------------------+
|                         Euler wall|                             Wing_1|
+-----------------------------------------------------------------------+
|                          Far-field|                           Farfield|
+-----------------------------------------------------------------------+
|                     Symmetry plane|                                  0|
+-----------------------------------------------------------------------+
|           Deformable mesh boundary|                            airfoil|
+-----------------------------------------------------------------------+

-------------------- Output Preprocessing ( Zone 0 ) --------------------
Screen output fields: INNER_ITER, TIME_ITER, RMS_DENSITY, RMS_MOMENTUM-X, RMS_MOMENTUM-Y, RMS_ENERGY, LIFT, DRAG
  Info: Ignoring the following history output groups:
  TIME_ITER
History output group(s): ITER, RMS_RES, AERO_COEFF
Warning: No (valid) fields chosen for convergence monitoring. Convergence monitoring inactive.
Warning: No (valid) fields chosen for time convergence monitoring. Time convergence monitoring inactive.
Volume output fields: COORDINATES, SOLUTION, PRIMITIVE

------------------- Geometry Preprocessing ( Zone 0 ) -------------------
Three dimensional problem.
142678 grid points before partitioning.
739205 volume elements before partitioning.
2 surface markers.
99234 boundary elements in index 0 (Marker = Wing_1).
1280 boundary elements in index 1 (Marker = Farfield).
Executing the partitioning functions.
Building the graph adjacency structure.
Calling ParMETIS... graph partitioning complete (4166 edge cuts).
Distributing ParMETIS coloring.
Rebalancing vertices.
Rebalancing volume element connectivity.
Rebalancing markers and surface elements.
144929 vertices including ghost points. 
745322 interior elements including halo cells. 
745322 tetrahedra.
Establishing MPI communication patterns.
Setting point connectivity.
Renumbering points (Reverse Cuthill McKee Ordering).
Recomputing point connectivity.
Setting element connectivity.
Checking the numerical grid orientation.
Identifying edges and vertices.
Computing centers of gravity.
Setting the control volume structure.
Volume of the computational grid: 587948.
Searching for the closest normal neighbors to the surfaces.
Storing a mapping from global to local point index.
Compute the surface curvature.
Max K: 956.576. Mean K: 12.8915. Standard deviation K: 55.0123.
Checking for periodicity.
Computing mesh quality statistics for the dual control volumes.
+--------------------------------------------------------------+
|           Mesh Quality Metric|        Minimum|        Maximum|
+--------------------------------------------------------------+
|    Orthogonality Angle (deg.)|        46.3483|        85.7724|
|     CV Face Area Aspect Ratio|        1.42193|        36.5646|
|           CV Sub-Volume Ratio|        1.02915|         142.94|
+--------------------------------------------------------------+
Setting the multigrid structure.
+-------------------------------------------+
|  MG Level|       CVs|Aggl. Rate|       CFL|
+-------------------------------------------+
|         0|    144929|    1/1.00|         1|
|         1|     24168|       1/6|  0.825632|
|         2|      3805|    1/6.35|  0.668727|
|         3|       762|    1/4.99|  0.586868|
+-------------------------------------------+
Finding max control volume width.
Communicating number of neighbors.
Semi-span length = 4.98671 m.
Wetted area = 42.1671 m^2.
Area projection in the x-plane = 3.09315 m^2, y-plane = 1.62573 m^2, z-plane = 20.0855 m^2.
Max. coordinate in the x-direction = 1.02227 m, y-direction = 4.98671 m, z-direction = 0.510467 m.
Min. coordinate in the x-direction = -1.02812 m, y-direction = -4.98586 m, z-direction = -0.117299 m.
Checking if Euler & Symmetry markers are straight/plane:
Boundary marker Wing_1 is NOT a single plane.
Boundary marker 0 is a single plane.

-------------------- Solver Preprocessing ( Zone 0 ) --------------------
Inviscid flow: Computing density based on free-stream
temperature and pressure using the ideal gas law.
Force coefficients computed using free-stream values.

-- Models:
+------------------------------------------------------------------------------+
|          Viscosity Model|        Conductivity Model|              Fluid Model|
+------------------------------------------------------------------------------+
|                        -|                         -|             STANDARD_AIR|
+------------------------------------------------------------------------------+
-- Fluid properties:
+------------------------------------------------------------------------------+
|                  Name|    Dim. value|    Ref. value|      Unit|Non-dim. value|
+------------------------------------------------------------------------------+
|          Gas Constant|       287.058|             1|  N.m/kg.K|       287.058|
|      Spec. Heat Ratio|             -|             -|         -|           1.4|
+------------------------------------------------------------------------------+
-- Initial and free-stream conditions:
+------------------------------------------------------------------------------+
|                  Name|    Dim. value|    Ref. value|      Unit|Non-dim. value|
+------------------------------------------------------------------------------+
|       Static Pressure|        101325|             1|        Pa|        101325|
|               Density|       1.22498|             1|    kg/m^3|       1.22498|
|           Temperature|        288.15|             1|         K|        288.15|
|          Total Energy|        211794|             1|   m^2/s^2|        211794|
|            Velocity-X|       98.5274|             1|       m/s|       98.5274|
|            Velocity-Y|             0|             1|       m/s|             0|
|            Velocity-Z|        17.373|             1|       m/s|        17.373|
|    Velocity Magnitude|       100.047|             1|       m/s|       100.047|
+------------------------------------------------------------------------------+
|           Mach Number|             -|             -|         -|         0.294|
+------------------------------------------------------------------------------+
Initialize Jacobian structure (Euler). MG level: 0.
Initialize Jacobian structure (Euler). MG level: 1.
Initialize Jacobian structure (Euler). MG level: 2.
Initialize Jacobian structure (Euler). MG level: 3.

------------------- Numerics Preprocessing ( Zone 0 ) -------------------

----------------- Integration Preprocessing ( Zone 0 ) ------------------

------------------- Iteration Preprocessing ( Zone 0 ) ------------------
Euler/Navier-Stokes/RANS fluid iteration.

------------------------------ Begin Solver -----------------------------

Simulation Run using the Single-zone Driver
+-------------------------------------------------------------------------------------------------------+
|  Inner_Iter|   Time_Iter|    rms[Rho]|   rms[RhoU]|   rms[RhoV]|   rms[RhoE]|          CL|          CD|
+-------------------------------------------------------------------------------------------------------+
|           0|           0|   -1.659353|    0.508167|   -0.312725|    3.809747|    2.197085|    0.979369|
|           1|           0|   -1.733080|    0.480225|    0.056382|    3.737911|    3.802760|    1.684507|
|           2|           0|   -1.671751|    0.602371|    0.298839|    3.802350|    4.900198|    2.153173|
|           3|           0|   -1.582634|    0.729928|    0.448971|    3.892489|    5.582253|    2.426573|
|           4|           0|   -1.501722|    0.843387|    0.568452|    3.973838|    5.935366|    2.543796|
|           5|           0|   -1.431596|    0.945888|    0.676336|    4.044416|    6.036307|    2.540986|
|           6|           0|   -1.370386|    1.039259|    0.777693|    4.106092|    5.950766|    2.450096|
|           7|           0|   -1.317314|    1.123901|    0.873066|    4.159533|    5.733953|    2.298407|
|           8|           0|   -1.272542|    1.199924|    0.961937|    4.204487|    5.432464|    2.109056|
|           9|           0|   -1.236240|    1.267520|    1.043727|    4.240716|    5.083488|    1.900911|
|          10|           0|   -1.208719|    1.327032|    1.117918|    4.267830|    4.713345|    1.687864|
+-----------------------------------------------------------------------+
|        File Writing Summary       |              Filename             |
+-----------------------------------------------------------------------+
|SU2 restart                        |solution_flow.dat                  |
|Paraview                           |flow.vtu                           |
|Paraview surface                   |surface_flow.vtu                   |
+-----------------------------------------------------------------------+

Writing the forces breakdown file (forces_breakdown.dat).
+-------------------------------------------------------------------------------------------------------+
|  Inner_Iter|   Time_Iter|    rms[Rho]|   rms[RhoU]|   rms[RhoV]|   rms[RhoE]|          CL|          CD|
+-------------------------------------------------------------------------------------------------------+
|          11|           0|   -1.190202|    1.378670|    1.184298|    4.285472|    4.340598|    1.479680|
|          12|           0|   -1.180697|    1.422761|    1.242962|    4.293472|    3.977738|    1.282932|
|          13|           0|   -1.180107|    1.459597|    1.293987|    4.291695|    3.631927|    1.101327|
|          14|           0|   -1.187835|    1.489337|    1.337472|    4.280360|    3.306262|    0.936296|
|          15|           0|   -1.203004|    1.512208|    1.373565|    4.259871|    3.001056|    0.787727|
|          16|           0|   -1.223409|    1.528445|    1.402467|    4.231939|    2.714710|    0.654453|
|          17|           0|   -1.244950|    1.538229|    1.424220|    4.200630|    2.444726|    0.534775|
|          18|           0|   -1.261783|    1.541799|    1.438933|    4.173012|    2.188341|    0.426791|
|          19|           0|   -1.266443|    1.539242|    1.446736|    4.159870|    1.942996|    0.328660|
|          20|           0|   -1.255007|    1.530793|    1.447646|    4.168971|    1.706698|    0.238756|
+-----------------------------------------------------------------------+
|        File Writing Summary       |              Filename             |
+-----------------------------------------------------------------------+
|SU2 restart                        |solution_flow.dat                  |
|Paraview                           |flow.vtu                           |
|Paraview surface                   |surface_flow.vtu                   |
+-----------------------------------------------------------------------+

Writing the forces breakdown file (forces_breakdown.dat).
+-------------------------------------------------------------------------------------------------------+
|  Inner_Iter|   Time_Iter|    rms[Rho]|   rms[RhoU]|   rms[RhoV]|   rms[RhoE]|          CL|          CD|
+-------------------------------------------------------------------------------------------------------+
|          21|           0|   -1.228986|    1.516896|    1.441898|    4.199345|    1.478145|    0.155762|
|          22|           0|   -1.194139|    1.497787|    1.429667|    4.242281|    1.256933|    0.078754|
|          23|           0|   -1.157025|    1.474387|    1.411032|    4.288081|    1.043463|    0.007169|
|          24|           0|   -1.122470|    1.447051|    1.386493|    4.330283|    0.838834|   -0.059205|
|          25|           0|   -1.093282|    1.417517|    1.356645|    4.365625|    0.644672|   -0.120309|
|          26|           0|   -1.071068|    1.387744|    1.323141|    4.392465|    0.462926|   -0.175896|
|          27|           0|   -1.055639|    1.359813|    1.287677|    4.411081|    0.295735|   -0.225588|
|          28|           0|   -1.046921|    1.335499|    1.252739|    4.421588|    0.145214|   -0.268944|
|          29|           0|   -1.043996|    1.319578|    1.222721|    4.425165|    0.013323|   -0.305528|
|          30|           0|   -1.046028|    1.313779|    1.201120|    4.422684|   -0.098217|   -0.334958|
+-----------------------------------------------------------------------+
|        File Writing Summary       |              Filename             |
+-----------------------------------------------------------------------+
|SU2 restart                        |solution_flow.dat                  |
|Paraview                           |flow.vtu                           |
|Paraview surface                   |surface_flow.vtu                   |
+-----------------------------------------------------------------------+

Writing the forces breakdown file (forces_breakdown.dat).
+-------------------------------------------------------------------------------------------------------+
|  Inner_Iter|   Time_Iter|    rms[Rho]|   rms[RhoU]|   rms[RhoV]|   rms[RhoE]|          CL|          CD|
+-------------------------------------------------------------------------------------------------------+
|          31|           0|   -1.051448|    1.317593|    1.190931|    4.415690|   -0.188000|   -0.356941|
|          32|           0|   -1.059014|    1.330052|    1.193230|    4.405399|   -0.254969|   -0.371287|
|          33|           0|   -1.066752|    1.348271|    1.207500|    4.394089|   -0.298454|   -0.377924|
|          34|           0|   -1.073129|    1.370037|    1.230104|    4.383487|   -0.318190|   -0.376907|
|          35|           0|   -1.077899|    1.394412|    1.257119|    4.374363|   -0.314296|   -0.368410|
|          36|           0|   -1.081220|    1.419499|    1.286309|    4.367201|   -0.287284|   -0.352730|
|          37|           0|   -1.084478|    1.442821|    1.315493|    4.360643|   -0.237983|   -0.330248|
|          38|           0|   -1.088024|    1.462886|    1.343054|    4.354296|   -0.167553|   -0.301444|
|          39|           0|   -1.092502|    1.478927|    1.368909|    4.347420|   -0.077437|   -0.266870|
|          40|           0|   -1.098441|    1.490590|    1.391790|    4.339383|    0.030663|   -0.227147|
+-----------------------------------------------------------------------+
|        File Writing Summary       |              Filename             |
+-----------------------------------------------------------------------+
|SU2 restart                        |solution_flow.dat                  |
|Paraview                           |flow.vtu                           |
|Paraview surface                   |surface_flow.vtu                   |
+-----------------------------------------------------------------------+

Writing the forces breakdown file (forces_breakdown.dat).
+-------------------------------------------------------------------------------------------------------+
|  Inner_Iter|   Time_Iter|    rms[Rho]|   rms[RhoU]|   rms[RhoV]|   rms[RhoE]|          CL|          CD|
+-------------------------------------------------------------------------------------------------------+
|          41|           0|   -1.105752|    1.497511|    1.410420|    4.330307|    0.154809|   -0.182948|
|          42|           0|   -1.112724|    1.499203|    1.424480|    4.322029|    0.292860|   -0.134995|
|          43|           0|   -1.118133|    1.495414|    1.433424|    4.315900|    0.442513|   -0.084041|
|          44|           0|   -1.120495|    1.486206|    1.437313|    4.313773|    0.601338|   -0.030863|
|          45|           0|   -1.118286|    1.471457|    1.435845|    4.317340|    0.766830|    0.023748|
|          46|           0|   -1.111012|    1.451281|    1.429366|    4.327044|    0.936434|    0.079000|
|          47|           0|   -1.100278|    1.426269|    1.418780|    4.340881|    1.107606|    0.134115|
|          48|           0|   -1.087922|    1.397140|    1.404754|    4.356499|    1.277813|    0.188323|
|          49|           0|   -1.075868|    1.365882|    1.388419|    4.371661|    1.444609|    0.240886|
|          50|           0|   -1.065483|    1.334994|    1.371657|    4.384702|    1.605645|    0.291097|
+-----------------------------------------------------------------------+
|        File Writing Summary       |              Filename             |
+-----------------------------------------------------------------------+
|SU2 restart                        |solution_flow.dat                  |
|Paraview                           |flow.vtu                           |
|Paraview surface                   |surface_flow.vtu                   |
+-----------------------------------------------------------------------+

Writing the forces breakdown file (forces_breakdown.dat).
+-------------------------------------------------------------------------------------------------------+
|  Inner_Iter|   Time_Iter|    rms[Rho]|   rms[RhoU]|   rms[RhoV]|   rms[RhoE]|          CL|          CD|
+-------------------------------------------------------------------------------------------------------+
|          51|           0|   -1.058501|    1.307605|    1.356368|    4.393855|    1.758729|    0.338296|
|          52|           0|   -1.056718|    1.287877|    1.345257|    4.397205|    1.901845|    0.381881|
|          53|           0|   -1.059423|    1.278844|    1.339949|    4.395427|    2.033202|    0.421317|
|          54|           0|   -1.066813|    1.281610|    1.341594|    4.388168|    2.151248|    0.456144|
|          55|           0|   -1.079233|    1.293348|    1.349288|    4.374935|    2.254714|    0.485988|
|          56|           0|   -1.095680|    1.310610|    1.361561|    4.356563|    2.342626|    0.510568|
|          57|           0|   -1.114135|    1.329248|    1.376017|    4.335012|    2.414302|    0.529696|
|          58|           0|   -1.133614|    1.347318|    1.390806|    4.311159|    2.469364|    0.543278|
|          59|           0|   -1.152235|    1.363036|    1.404488|    4.286900|    2.507734|    0.551314|
|          60|           0|   -1.167977|    1.375408|    1.415907|    4.264785|    2.529627|    0.553897|
+-----------------------------------------------------------------------+
|        File Writing Summary       |              Filename             |
+-----------------------------------------------------------------------+
|SU2 restart                        |solution_flow.dat                  |
|Paraview                           |flow.vtu                           |
|Paraview surface                   |surface_flow.vtu                   |
+-----------------------------------------------------------------------+

Writing the forces breakdown file (forces_breakdown.dat).
+-------------------------------------------------------------------------------------------------------+
|  Inner_Iter|   Time_Iter|    rms[Rho]|   rms[RhoU]|   rms[RhoV]|   rms[RhoE]|          CL|          CD|
+-------------------------------------------------------------------------------------------------------+
|          61|           0|   -1.180473|    1.383794|    1.424685|    4.246004|    2.535524|    0.551207|
|          62|           0|   -1.188713|    1.388596|    1.430414|    4.232555|    2.526145|    0.543504|
|          63|           0|   -1.192524|    1.389275|    1.433099|    4.225440|    2.502438|    0.531118|
|          64|           0|   -1.192615|    1.386527|    1.432699|    4.224188|    2.465572|    0.514453|
|          65|           0|   -1.189874|    1.380678|    1.429348|    4.228014|    2.416857|    0.493960|
|          66|           0|   -1.185382|    1.371842|    1.423132|    4.235443|    2.357758|    0.470143|
|          67|           0|   -1.180408|    1.359779|    1.414404|    4.244562|    2.289827|    0.443535|
|          68|           0|   -1.176198|    1.344572|    1.403385|    4.253459|    2.214691|    0.414693|
|          69|           0|   -1.173354|    1.327217|    1.390626|    4.261107|    2.134038|    0.384190|
|          70|           0|   -1.172180|    1.308242|    1.376840|    4.266921|    2.049545|    0.352597|
+-----------------------------------------------------------------------+
|        File Writing Summary       |              Filename             |
+-----------------------------------------------------------------------+
|SU2 restart                        |solution_flow.dat                  |
|Paraview                           |flow.vtu                           |
|Paraview surface                   |surface_flow.vtu                   |
+-----------------------------------------------------------------------+

Writing the forces breakdown file (forces_breakdown.dat).
+-------------------------------------------------------------------------------------------------------+
|  Inner_Iter|   Time_Iter|    rms[Rho]|   rms[RhoU]|   rms[RhoV]|   rms[RhoE]|          CL|          CD|
+-------------------------------------------------------------------------------------------------------+
|          71|           0|   -1.173012|    1.287921|    1.362492|    4.270307|    1.962863|    0.320474|
|          72|           0|   -1.176011|    1.267438|    1.348630|    4.270939|    1.875604|    0.288364|
|          73|           0|   -1.180928|    1.247834|    1.335872|    4.268989|    1.789320|    0.256787|
|          74|           0|   -1.187398|    1.230600|    1.325157|    4.264758|    1.705451|    0.226223|
|          75|           0|   -1.195585|    1.216914|    1.317002|    4.257994|    1.625306|    0.197105|
|          76|           0|   -1.205311|    1.207713|    1.311640|    4.248751|    1.550064|    0.169822|
|          77|           0|   -1.216662|    1.204159|    1.309114|    4.236902|    1.480754|    0.144705|
|          78|           0|   -1.229007|    1.205725|    1.309173|    4.223005|    1.418259|    0.122037|
|          79|           0|   -1.242601|    1.211743|    1.311099|    4.206733|    1.363291|    0.102038|
|          80|           0|   -1.257356|    1.220678|    1.314054|    4.188109|    1.316388|    0.084868|
+-----------------------------------------------------------------------+
|        File Writing Summary       |              Filename             |
+-----------------------------------------------------------------------+
|SU2 restart                        |solution_flow.dat                  |
|Paraview                           |flow.vtu                           |
|Paraview surface                   |surface_flow.vtu                   |
+-----------------------------------------------------------------------+

Writing the forces breakdown file (forces_breakdown.dat).
+-------------------------------------------------------------------------------------------------------+
|  Inner_Iter|   Time_Iter|    rms[Rho]|   rms[RhoU]|   rms[RhoV]|   rms[RhoE]|          CL|          CD|
+-------------------------------------------------------------------------------------------------------+
|          81|           0|   -1.271961|    1.230845|    1.317257|    4.168644|    1.277927|    0.070631|
|          82|           0|   -1.286239|    1.241577|    1.320186|    4.148725|    1.248115|    0.059370|
|          83|           0|   -1.299942|    1.251373|    1.322429|    4.128899|    1.227015|    0.051081|
|          84|           0|   -1.312108|    1.258985|    1.323456|    4.110723|    1.214534|    0.045704|
|          85|           0|   -1.322870|    1.264724|    1.322646|    4.094704|    1.210442|    0.043136|
|          86|           0|   -1.332764|    1.268227|    1.319856|    4.080714|    1.214370|    0.043226|
|          87|           0|   -1.341599|    1.269272|    1.314706|    4.069248|    1.225855|    0.045791|
|          88|           0|   -1.349355|    1.267623|    1.307350|    4.060563|    1.244315|    0.050615|
|          89|           0|   -1.356135|    1.263640|    1.297795|    4.054531|    1.269107|    0.057465|
|          90|           0|   -1.362238|    1.256986|    1.286438|    4.050774|    1.299508|    0.066084|
+-----------------------------------------------------------------------+
|        File Writing Summary       |              Filename             |
+-----------------------------------------------------------------------+
|SU2 restart                        |solution_flow.dat                  |
|Paraview                           |flow.vtu                           |
|Paraview surface                   |surface_flow.vtu                   |
+-----------------------------------------------------------------------+

Writing the forces breakdown file (forces_breakdown.dat).
+-------------------------------------------------------------------------------------------------------+
|  Inner_Iter|   Time_Iter|    rms[Rho]|   rms[RhoU]|   rms[RhoV]|   rms[RhoE]|          CL|          CD|
+-------------------------------------------------------------------------------------------------------+
|          91|           0|   -1.367818|    1.247364|    1.273302|    4.048804|    1.334756|    0.076209|
|          92|           0|   -1.373188|    1.235084|    1.258372|    4.047897|    1.374045|    0.087566|
|          93|           0|   -1.379078|    1.220576|    1.242171|    4.046846|    1.416543|    0.099875|
|          94|           0|   -1.385697|    1.204290|    1.225274|    4.045215|    1.461423|    0.112863|
|          95|           0|   -1.393346|    1.186837|    1.208020|    4.042438|    1.507856|    0.126264|
|          96|           0|   -1.402174|    1.168686|    1.191031|    4.038169|    1.555044|    0.139826|
|          97|           0|   -1.412019|    1.150725|    1.174674|    4.032447|    1.602221|    0.153312|
|          98|           0|   -1.422768|    1.133457|    1.159321|    4.025251|    1.648666|    0.166501|
|          99|           0|   -1.435225|    1.118251|    1.145509|    4.015557|    1.693714|    0.179199|
|         100|           0|   -1.448951|    1.105927|    1.133708|    4.003910|    1.736727|    0.191222|
+-----------------------------------------------------------------------+
|        File Writing Summary       |              Filename             |
+-----------------------------------------------------------------------+
|SU2 restart                        |solution_flow.dat                  |
|Paraview                           |flow.vtu                           |
|Paraview surface                   |surface_flow.vtu                   |
+-----------------------------------------------------------------------+

Writing the forces breakdown file (forces_breakdown.dat).
+-------------------------------------------------------------------------------------------------------+
|  Inner_Iter|   Time_Iter|    rms[Rho]|   rms[RhoU]|   rms[RhoV]|   rms[RhoE]|          CL|          CD|
+-------------------------------------------------------------------------------------------------------+
|         101|           0|   -1.463681|    1.096962|    1.124100|    3.990557|    1.777172|    0.202423|
|         102|           0|   -1.479215|    1.091440|    1.116589|    3.975601|    1.814566|    0.212674|
|         103|           0|   -1.495379|    1.089304|    1.110942|    3.959173|    1.848510|    0.221875|
|         104|           0|   -1.512134|    1.089976|    1.106644|    3.941372|    1.878679|    0.229950|
|         105|           0|   -1.529151|    1.093234|    1.103202|    3.922587|    1.904827|    0.236846|
|         106|           0|   -1.546478|    1.098403|    1.100182|    3.902742|    1.926788|    0.242537|
|         107|           0|   -1.563236|    1.104330|    1.097196|    3.882795|    1.944472|    0.247020|
|         108|           0|   -1.579616|    1.110141|    1.093703|    3.862721|    1.957849|    0.250309|
|         109|           0|   -1.595655|    1.115433|    1.089520|    3.842746|    1.966980|    0.252442|
|         110|           0|   -1.611014|    1.119646|    1.084407|    3.823541|    1.971987|    0.253467|
+-----------------------------------------------------------------------+
|        File Writing Summary       |              Filename             |
+-----------------------------------------------------------------------+
|SU2 restart                        |solution_flow.dat                  |
|Paraview                           |flow.vtu                           |
|Paraview surface                   |surface_flow.vtu                   |
+-----------------------------------------------------------------------+

Writing the forces breakdown file (forces_breakdown.dat).
+-------------------------------------------------------------------------------------------------------+
|  Inner_Iter|   Time_Iter|    rms[Rho]|   rms[RhoU]|   rms[RhoV]|   rms[RhoE]|          CL|          CD|
+-------------------------------------------------------------------------------------------------------+
|         111|           0|   -1.625675|    1.122977|    1.078436|    3.805317|    1.973042|    0.253450|
|         112|           0|   -1.639089|    1.125070|    1.071252|    3.789021|    1.970369|    0.252465|
|         113|           0|   -1.651249|    1.126000|    1.062666|    3.774891|    1.964218|    0.250591|
|         114|           0|   -1.662327|    1.125642|    1.052443|    3.762866|    1.954902|    0.247919|
|         115|           0|   -1.672237|    1.123892|    1.040589|    3.753212|    1.942764|    0.244546|
|         116|           0|   -1.680863|    1.120712|    1.026987|    3.746062|    1.928174|    0.240571|
|         117|           0|   -1.688069|    1.115998|    1.011673|    3.741362|    1.911518|    0.236098|
|         118|           0|   -1.694053|    1.109811|    0.994588|    3.738782|    1.893184|    0.231225|
|         119|           0|   -1.698737|    1.102306|    0.975842|    3.738168|    1.873565|    0.226047|
|         120|           0|   -1.702430|    1.093623|    0.955551|    3.738948|    1.853044|    0.220657|
+-----------------------------------------------------------------------+
|        File Writing Summary       |              Filename             |
+-----------------------------------------------------------------------+
|SU2 restart                        |solution_flow.dat                  |
|Paraview                           |flow.vtu                           |
|Paraview surface                   |surface_flow.vtu                   |
+-----------------------------------------------------------------------+

Writing the forces breakdown file (forces_breakdown.dat).
+-------------------------------------------------------------------------------------------------------+
|  Inner_Iter|   Time_Iter|    rms[Rho]|   rms[RhoU]|   rms[RhoV]|   rms[RhoE]|          CL|          CD|
+-------------------------------------------------------------------------------------------------------+
|         121|           0|   -1.705332|    1.083891|    0.934005|    3.740623|    1.832003|    0.215144|
|         122|           0|   -1.707572|    1.073135|    0.911407|    3.742838|    1.810811|    0.209594|
|         123|           0|   -1.709697|    1.061913|    0.888198|    3.744863|    1.789813|    0.204084|
|         124|           0|   -1.712232|    1.050603|    0.864782|    3.745962|    1.769348|    0.198686|
|         125|           0|   -1.715450|    1.039312|    0.841746|    3.745730|    1.749725|    0.193469|
|         126|           0|   -1.719582|    1.028120|    0.819978|    3.743681|    1.731223|    0.188489|
|         127|           0|   -1.724754|    1.017587|    0.800479|    3.740001|    1.714085|    0.183798|
|         128|           0|   -1.731367|    1.007885|    0.784029|    3.734045|    1.698528|    0.179439|
|         129|           0|   -1.739518|    0.999539|    0.771464|    3.725842|    1.684738|    0.175447|
|         130|           0|   -1.749020|    0.992405|    0.763108|    3.715508|    1.672862|    0.171850|
+-----------------------------------------------------------------------+
|        File Writing Summary       |              Filename             |
+-----------------------------------------------------------------------+
|SU2 restart                        |solution_flow.dat                  |
|Paraview                           |flow.vtu                           |
|Paraview surface                   |surface_flow.vtu                   |
+-----------------------------------------------------------------------+

Writing the forces breakdown file (forces_breakdown.dat).
+-------------------------------------------------------------------------------------------------------+
|  Inner_Iter|   Time_Iter|    rms[Rho]|   rms[RhoU]|   rms[RhoV]|   rms[RhoE]|          CL|          CD|
+-------------------------------------------------------------------------------------------------------+
|         131|           0|   -1.759755|    0.985024|    0.758378|    3.702836|    1.663015|    0.168670|
|         132|           0|   -1.771424|    0.978464|    0.757198|    3.688445|    1.655280|    0.165920|
|         133|           0|   -1.783635|    0.972895|    0.758979|    3.672802|    1.649711|    0.163612|
|         134|           0|   -1.795757|    0.968292|    0.762736|    3.656599|    1.646324|    0.161745|
|         135|           0|   -1.807513|    0.964711|    0.767731|    3.640136|    1.645097|    0.160313|
|         136|           0|   -1.818629|    0.961695|    0.773088|    3.623784|    1.645983|    0.159305|
|         137|           0|   -1.828390|    0.958543|    0.777931|    3.608436|    1.648908|    0.158707|
|         138|           0|   -1.836537|    0.955249|    0.781699|    3.594648|    1.653766|    0.158493|
|         139|           0|   -1.842961|    0.951413|    0.783832|    3.582966|    1.660414|    0.158634|
|         140|           0|   -1.847550|    0.946773|    0.783972|    3.574043|    1.668689|    0.159095|
+-----------------------------------------------------------------------+
|        File Writing Summary       |              Filename             |
+-----------------------------------------------------------------------+
|SU2 restart                        |solution_flow.dat                  |
|Paraview                           |flow.vtu                           |
|Paraview surface                   |surface_flow.vtu                   |
+-----------------------------------------------------------------------+

Writing the forces breakdown file (forces_breakdown.dat).
+-------------------------------------------------------------------------------------------------------+
|  Inner_Iter|   Time_Iter|    rms[Rho]|   rms[RhoU]|   rms[RhoV]|   rms[RhoE]|          CL|          CD|
+-------------------------------------------------------------------------------------------------------+
|         141|           0|   -1.850385|    0.941207|    0.781954|    3.568179|    1.678413|    0.159840|
|         142|           0|   -1.851368|    0.934492|    0.777785|    3.565674|    1.689379|    0.160826|
|         143|           0|   -1.851045|    0.926692|    0.771313|    3.565994|    1.701378|    0.162015|
|         144|           0|   -1.849616|    0.917729|    0.762608|    3.568750|    1.714187|    0.163362|
|         145|           0|   -1.847932|    0.907441|    0.751663|    3.572882|    1.727587|    0.164830|
|         146|           0|   -1.846435|    0.896072|    0.738488|    3.577738|    1.741344|    0.166375|
|         147|           0|   -1.845436|    0.883748|    0.723086|    3.582695|    1.755227|    0.167956|
|         148|           0|   -1.844894|    0.870491|    0.705540|    3.587627|    1.769020|    0.169534|
|         149|           0|   -1.845158|    0.856584|    0.686219|    3.591929|    1.782506|    0.171070|
|         150|           0|   -1.846180|    0.842175|    0.665675|    3.595404|    1.795492|    0.172533|
+-----------------------------------------------------------------------+
|        File Writing Summary       |              Filename             |
+-----------------------------------------------------------------------+
|SU2 restart                        |solution_flow.dat                  |
|Paraview                           |flow.vtu                           |
|Paraview surface                   |surface_flow.vtu                   |
+-----------------------------------------------------------------------+

Writing the forces breakdown file (forces_breakdown.dat).
+-------------------------------------------------------------------------------------------------------+
|  Inner_Iter|   Time_Iter|    rms[Rho]|   rms[RhoU]|   rms[RhoV]|   rms[RhoE]|          CL|          CD|
+-------------------------------------------------------------------------------------------------------+
|         151|           0|   -1.848147|    0.827593|    0.644424|    3.597722|    1.807797|    0.173894|
|         152|           0|   -1.851062|    0.813003|    0.623151|    3.598739|    1.819261|    0.175132|
|         153|           0|   -1.855083|    0.798705|    0.602664|    3.598151|    1.829737|    0.176226|
|         154|           0|   -1.860245|    0.785291|    0.584139|    3.595773|    1.839099|    0.177159|
|         155|           0|   -1.866374|    0.773160|    0.568834|    3.591697|    1.847237|    0.177918|
|         156|           0|   -1.873672|    0.762771|    0.557568|    3.585651|    1.854067|    0.178493|
|         157|           0|   -1.881952|    0.754363|    0.550840|    3.577817|    1.859529|    0.178877|
|         158|           0|   -1.891167|    0.747889|    0.548717|    3.568106|    1.863592|    0.179073|
|         159|           0|   -1.901027|    0.743160|    0.550656|    3.556777|    1.866247|    0.179084|
|         160|           0|   -1.911458|    0.740062|    0.555672|    3.543787|    1.867503|    0.178916|
+-----------------------------------------------------------------------+
|        File Writing Summary       |              Filename             |
+-----------------------------------------------------------------------+
|SU2 restart                        |solution_flow.dat                  |
|Paraview                           |flow.vtu                           |
|Paraview surface                   |surface_flow.vtu                   |
+-----------------------------------------------------------------------+

Writing the forces breakdown file (forces_breakdown.dat).
+-------------------------------------------------------------------------------------------------------+
|  Inner_Iter|   Time_Iter|    rms[Rho]|   rms[RhoU]|   rms[RhoV]|   rms[RhoE]|          CL|          CD|
+-------------------------------------------------------------------------------------------------------+
|         161|           0|   -1.922310|    0.738345|    0.562647|    3.529374|    1.867391|    0.178579|
|         162|           0|   -1.933512|    0.737694|    0.570587|    3.513625|    1.865968|    0.178087|
|         163|           0|   -1.944773|    0.737469|    0.578546|    3.496887|    1.863312|    0.177458|
|         164|           0|   -1.955749|    0.737331|    0.585753|    3.479764|    1.859511|    0.176707|
|         165|           0|   -1.966185|    0.736930|    0.591605|    3.462776|    1.854679|    0.175857|
|         166|           0|   -1.975593|    0.735744|    0.595640|    3.446839|    1.848936|    0.174930|
|         167|           0|   -1.983790|    0.733490|    0.597519|    3.432574|    1.842413|    0.173949|
|         168|           0|   -1.990750|    0.729730|    0.596918|    3.420511|    1.835249|    0.172936|
|         169|           0|   -1.996465|    0.724208|    0.593627|    3.411052|    1.827590|    0.171914|
|         170|           0|   -2.000800|    0.716719|    0.587597|    3.404651|    1.819588|    0.170907|
+-----------------------------------------------------------------------+
|        File Writing Summary       |              Filename             |
+-----------------------------------------------------------------------+
|SU2 restart                        |solution_flow.dat                  |
|Paraview                           |flow.vtu                           |
|Paraview surface                   |surface_flow.vtu                   |
+-----------------------------------------------------------------------+

Writing the forces breakdown file (forces_breakdown.dat).
+-------------------------------------------------------------------------------------------------------+
|  Inner_Iter|   Time_Iter|    rms[Rho]|   rms[RhoU]|   rms[RhoV]|   rms[RhoE]|          CL|          CD|
+-------------------------------------------------------------------------------------------------------+
|         171|           0|   -2.003758|    0.707197|    0.578811|    3.401480|    1.811386|    0.169934|
|         172|           0|   -2.005886|    0.695624|    0.567348|    3.400843|    1.803144|    0.169019|
|         173|           0|   -2.007172|    0.681980|    0.553345|    3.402591|    1.795014|    0.168183|
|         174|           0|   -2.008103|    0.666407|    0.536854|    3.405811|    1.787124|    0.167438|
|         175|           0|   -2.009040|    0.649023|    0.518058|    3.409823|    1.779610|    0.166802|
|         176|           0|   -2.010328|    0.630022|    0.497367|    3.413902|    1.772578|    0.166281|
|         177|           0|   -2.012306|    0.609498|    0.475182|    3.417364|    1.766143|    0.165887|
|         178|           0|   -2.014890|    0.587898|    0.452281|    3.420086|    1.760399|    0.165625|
|         179|           0|   -2.018421|    0.565796|    0.429494|    3.421545|    1.755430|    0.165500|
|         180|           0|   -2.023100|    0.543684|    0.407994|    3.421325|    1.751294|    0.165509|
+-----------------------------------------------------------------------+
|        File Writing Summary       |              Filename             |
+-----------------------------------------------------------------------+
|SU2 restart                        |solution_flow.dat                  |
|Paraview                           |flow.vtu                           |
|Paraview surface                   |surface_flow.vtu                   |
+-----------------------------------------------------------------------+

Writing the forces breakdown file (forces_breakdown.dat).
+-------------------------------------------------------------------------------------------------------+
|  Inner_Iter|   Time_Iter|    rms[Rho]|   rms[RhoU]|   rms[RhoV]|   rms[RhoE]|          CL|          CD|
+-------------------------------------------------------------------------------------------------------+
|         181|           0|   -2.028847|    0.522266|    0.388891|    3.419421|    1.748049|    0.165653|
|         182|           0|   -2.035905|    0.502262|    0.373363|    3.415467|    1.745728|    0.165925|
|         183|           0|   -2.044127|    0.484634|    0.362315|    3.409619|    1.744347|    0.166315|
|         184|           0|   -2.053389|    0.470120|    0.356087|    3.401881|    1.743909|    0.166815|
|         185|           0|   -2.063457|    0.459317|    0.354692|    3.392460|    1.744406|    0.167412|
|         186|           0|   -2.073924|    0.452393|    0.357489|    3.381800|    1.745817|    0.168094|
|         187|           0|   -2.084736|    0.449308|    0.363498|    3.369870|    1.748103|    0.168844|
|         188|           0|   -2.095872|    0.449737|    0.371528|    3.356657|    1.751211|    0.169647|
|         189|           0|   -2.106804|    0.453113|    0.380499|    3.342818|    1.755085|    0.170486|
|         190|           0|   -2.117323|    0.458443|    0.389519|    3.328623|    1.759656|    0.171344|
+-----------------------------------------------------------------------+
|        File Writing Summary       |              Filename             |
+-----------------------------------------------------------------------+
|SU2 restart                        |solution_flow.dat                  |
|Paraview                           |flow.vtu                           |
|Paraview surface                   |surface_flow.vtu                   |
+-----------------------------------------------------------------------+

Writing the forces breakdown file (forces_breakdown.dat).
+-------------------------------------------------------------------------------------------------------+
|  Inner_Iter|   Time_Iter|    rms[Rho]|   rms[RhoU]|   rms[RhoV]|   rms[RhoE]|          CL|          CD|
+-------------------------------------------------------------------------------------------------------+
|         191|           0|   -2.127348|    0.465027|    0.397798|    3.314277|    1.764847|    0.172203|
|         192|           0|   -2.136768|    0.471947|    0.404728|    3.300109|    1.770579|    0.173049|
|         193|           0|   -2.145457|    0.478540|    0.409977|    3.286460|    1.776764|    0.173865|
|         194|           0|   -2.153054|    0.484266|    0.413192|    3.274055|    1.783308|    0.174635|
|         195|           0|   -2.159465|    0.488882|    0.414238|    3.263333|    1.790116|    0.175346|
|         196|           0|   -2.165095|    0.492139|    0.412973|    3.254140|    1.797091|    0.175983|
|         197|           0|   -2.169798|    0.493720|    0.409389|    3.246892|    1.804134|    0.176534|
|         198|           0|   -2.173735|    0.493495|    0.403455|    3.241559|    1.811145|    0.176987|
|         199|           0|   -2.177062|    0.491455|    0.395194|    3.238040|    1.818028|    0.177335|
|         200|           0|   -2.179820|    0.487615|    0.384704|    3.236277|    1.824696|    0.177568|
+-----------------------------------------------------------------------+
|        File Writing Summary       |              Filename             |
+-----------------------------------------------------------------------+
|SU2 restart                        |solution_flow.dat                  |
|Paraview                           |flow.vtu                           |
|Paraview surface                   |surface_flow.vtu                   |
+-----------------------------------------------------------------------+

Writing the forces breakdown file (forces_breakdown.dat).
+-------------------------------------------------------------------------------------------------------+
|  Inner_Iter|   Time_Iter|    rms[Rho]|   rms[RhoU]|   rms[RhoV]|   rms[RhoE]|          CL|          CD|
+-------------------------------------------------------------------------------------------------------+
|         201|           0|   -2.182266|    0.481971|    0.371889|    3.235834|    1.831064|    0.177682|
|         202|           0|   -2.184687|    0.474808|    0.357100|    3.236289|    1.837052|    0.177673|
|         203|           0|   -2.187373|    0.466298|    0.340536|    3.237089|    1.842593|    0.177541|
|         204|           0|   -2.190606|    0.456624|    0.322503|    3.237748|    1.847616|    0.177285|
|         205|           0|   -2.194342|    0.445824|    0.303369|    3.238139|    1.852072|    0.176907|
|         206|           0|   -2.198770|    0.434147|    0.283555|    3.237819|    1.855910|    0.176412|
|         207|           0|   -2.204064|    0.421959|    0.263768|    3.236434|    1.859096|    0.175805|
|         208|           0|   -2.210297|    0.409479|    0.244741|    3.233762|    1.861603|    0.175093|
|         209|           0|   -2.217445|    0.397571|    0.227337|    3.229763|    1.863414|    0.174286|
|         210|           0|   -2.225608|    0.386574|    0.212534|    3.224198|    1.864531|    0.173396|
+-----------------------------------------------------------------------+
|        File Writing Summary       |              Filename             |
+-----------------------------------------------------------------------+
|SU2 restart                        |solution_flow.dat                  |
|Paraview                           |flow.vtu                           |
|Paraview surface                   |surface_flow.vtu                   |
+-----------------------------------------------------------------------+

Writing the forces breakdown file (forces_breakdown.dat).
+-------------------------------------------------------------------------------------------------------+
|  Inner_Iter|   Time_Iter|    rms[Rho]|   rms[RhoU]|   rms[RhoV]|   rms[RhoE]|          CL|          CD|
+-------------------------------------------------------------------------------------------------------+
|         211|           0|   -2.234813|    0.376783|    0.201038|    3.216934|    1.864957|    0.172433|
|         212|           0|   -2.244886|    0.368437|    0.193308|    3.208050|    1.864710|    0.171412|
|         213|           0|   -2.255725|    0.361638|    0.189458|    3.197583|    1.863815|    0.170347|
|         214|           0|   -2.267212|    0.356413|    0.189201|    3.185577|    1.862306|    0.169253|
|         215|           0|   -2.279261|    0.352676|    0.191825|    3.172092|    1.860226|    0.168144|
|         216|           0|   -2.291536|    0.350184|    0.196436|    3.157380|    1.857630|    0.167039|
|         217|           0|   -2.303808|    0.348599|    0.202104|    3.141642|    1.854574|    0.165950|
|         218|           0|   -2.315701|    0.347625|    0.207959|    3.125370|    1.851121|    0.164896|
|         219|           0|   -2.326992|    0.346863|    0.213345|    3.108929|    1.847340|    0.163889|
|         220|           0|   -2.337481|    0.345986|    0.217687|    3.092760|    1.843303|    0.162944|
+-----------------------------------------------------------------------+
|        File Writing Summary       |              Filename             |
+-----------------------------------------------------------------------+
|SU2 restart                        |solution_flow.dat                  |
|Paraview                           |flow.vtu                           |
|Paraview surface                   |surface_flow.vtu                   |
+-----------------------------------------------------------------------+

Writing the forces breakdown file (forces_breakdown.dat).
+-------------------------------------------------------------------------------------------------------+
|  Inner_Iter|   Time_Iter|    rms[Rho]|   rms[RhoU]|   rms[RhoV]|   rms[RhoE]|          CL|          CD|
+-------------------------------------------------------------------------------------------------------+
|         221|           0|   -2.346985|    0.344497|    0.220557|    3.077363|    1.839083|    0.162076|
|         222|           0|   -2.355416|    0.342204|    0.221591|    3.063195|    1.834755|    0.161295|
|         223|           0|   -2.362706|    0.338987|    0.220724|    3.050762|    1.830390|    0.160612|
|         224|           0|   -2.368777|    0.334611|    0.217784|    3.040514|    1.826059|    0.160036|
|         225|           0|   -2.373662|    0.328888|    0.212632|    3.032729|    1.821829|    0.159573|
|         226|           0|   -2.377554|    0.321715|    0.205170|    3.027427|    1.817766|    0.159229|
|         227|           0|   -2.380727|    0.312976|    0.195350|    3.024352|    1.813931|    0.159007|
|         228|           0|   -2.383279|    0.302593|    0.183323|    3.023356|    1.810385|    0.158910|
|         229|           0|   -2.385379|    0.290453|    0.169147|    3.024059|    1.807178|    0.158939|
|         230|           0|   -2.387331|    0.276605|    0.153044|    3.025846|    1.804358|    0.159091|
+-----------------------------------------------------------------------+
|        File Writing Summary       |              Filename             |
+-----------------------------------------------------------------------+
|SU2 restart                        |solution_flow.dat                  |
|Paraview                           |flow.vtu                           |
|Paraview surface                   |surface_flow.vtu                   |
+-----------------------------------------------------------------------+

Writing the forces breakdown file (forces_breakdown.dat).
+-------------------------------------------------------------------------------------------------------+
|  Inner_Iter|   Time_Iter|    rms[Rho]|   rms[RhoU]|   rms[RhoV]|   rms[RhoE]|          CL|          CD|
+-------------------------------------------------------------------------------------------------------+
|         231|           0|   -2.389410|    0.261177|    0.135246|    3.028210|    1.801964|    0.159364|
|         232|           0|   -2.391790|    0.244282|    0.116123|    3.030674|    1.800030|    0.159754|
|         233|           0|   -2.394684|    0.226116|    0.096302|    3.032752|    1.798583|    0.160254|
|         234|           0|   -2.398225|    0.206943|    0.076434|    3.034083|    1.797641|    0.160857|
|         235|           0|   -2.402558|    0.187125|    0.057277|    3.034320|    1.797215|    0.161554|
|         236|           0|   -2.407854|    0.167148|    0.039766|    3.033129|    1.797312|    0.162335|
|         237|           0|   -2.414062|    0.147744|    0.024926|    3.030526|    1.797925|    0.163188|
|         238|           0|   -2.421204|    0.129446|    0.013575|    3.026351|    1.799044|    0.164102|
|         239|           0|   -2.429074|    0.112941|    0.006267|    3.020775|    1.800652|    0.165064|
|         240|           0|   -2.437681|    0.098842|    0.003157|    3.013680|    1.802727|    0.166061|
+-----------------------------------------------------------------------+
|        File Writing Summary       |              Filename             |
+-----------------------------------------------------------------------+
|SU2 restart                        |solution_flow.dat                  |
|Paraview                           |flow.vtu                           |
|Paraview surface                   |surface_flow.vtu                   |
+-----------------------------------------------------------------------+

Writing the forces breakdown file (forces_breakdown.dat).
+-------------------------------------------------------------------------------------------------------+
|  Inner_Iter|   Time_Iter|    rms[Rho]|   rms[RhoU]|   rms[RhoV]|   rms[RhoE]|          CL|          CD|
+-------------------------------------------------------------------------------------------------------+
|         241|           0|   -2.446773|    0.087680|    0.004007|    3.005277|    1.805237|    0.167078|
|         242|           0|   -2.456243|    0.079785|    0.008178|    2.995642|    1.808150|    0.168105|
|         243|           0|   -2.466031|    0.075237|    0.014921|    2.984817|    1.811421|    0.169124|
|         244|           0|   -2.476021|    0.073729|    0.023320|    2.972881|    1.815011|    0.170125|
|         245|           0|   -2.486022|    0.074739|    0.032555|    2.960068|    1.818868|    0.171092|
|         246|           0|   -2.495672|    0.077799|    0.041789|    2.946879|    1.822947|    0.172015|
|         247|           0|   -2.504726|    0.082159|    0.050406|    2.933739|    1.827190|    0.172881|
|         248|           0|   -2.513250|    0.087199|    0.057900|    2.920738|    1.831550|    0.173681|
|         249|           0|   -2.521063|    0.092283|    0.063905|    2.908311|    1.835968|    0.174402|
|         250|           0|   -2.528081|    0.096899|    0.068244|    2.896785|    1.840395|    0.175040|
+-----------------------------------------------------------------------+
|        File Writing Summary       |              Filename             |
+-----------------------------------------------------------------------+
|SU2 restart                        |solution_flow.dat                  |
|Paraview                           |flow.vtu                           |
|Paraview surface                   |surface_flow.vtu                   |
+-----------------------------------------------------------------------+

Writing the forces breakdown file (forces_breakdown.dat).
+-------------------------------------------------------------------------------------------------------+
|  Inner_Iter|   Time_Iter|    rms[Rho]|   rms[RhoU]|   rms[RhoV]|   rms[RhoE]|          CL|          CD|
+-------------------------------------------------------------------------------------------------------+
|         251|           0|   -2.534246|    0.100701|    0.070822|    2.886536|    1.844774|    0.175583|
|         252|           0|   -2.539675|    0.103424|    0.071580|    2.877707|    1.849058|    0.176029|
|         253|           0|   -2.544404|    0.104873|    0.070465|    2.870510|    1.853196|    0.176370|
|         254|           0|   -2.548539|    0.104890|    0.067525|    2.864965|    1.857146|    0.176605|
|         255|           0|   -2.552276|    0.103453|    0.062811|    2.860922|    1.860861|    0.176731|
|         256|           0|   -2.555795|    0.100565|    0.056401|    2.858179|    1.864307|    0.176748|
|         257|           0|   -2.559265|    0.096245|    0.048435|    2.856454|    1.867449|    0.176657|
|         258|           0|   -2.562917|    0.090608|    0.039085|    2.855357|    1.870261|    0.176461|
|         259|           0|   -2.566822|    0.083794|    0.028603|    2.854670|    1.872715|    0.176163|
|         260|           0|   -2.571130|    0.076046|    0.017258|    2.854083|    1.874798|    0.175769|
+-----------------------------------------------------------------------+
|        File Writing Summary       |              Filename             |
+-----------------------------------------------------------------------+
|SU2 restart                        |solution_flow.dat                  |
|Paraview                           |flow.vtu                           |
|Paraview surface                   |surface_flow.vtu                   |
+-----------------------------------------------------------------------+

Writing the forces breakdown file (forces_breakdown.dat).
+-------------------------------------------------------------------------------------------------------+
|  Inner_Iter|   Time_Iter|    rms[Rho]|   rms[RhoU]|   rms[RhoV]|   rms[RhoE]|          CL|          CD|
+-------------------------------------------------------------------------------------------------------+
|         261|           0|   -2.576077|    0.067594|    0.005373|    2.853136|    1.876495|    0.175285|
|         262|           0|   -2.581820|    0.058663|   -0.006708|    2.851463|    1.877802|    0.174719|
|         263|           0|   -2.588420|    0.049518|   -0.018586|    2.848833|    1.878714|    0.174079|
|         264|           0|   -2.595969|    0.040533|   -0.029854|    2.845003|    1.879239|    0.173376|
|         265|           0|   -2.604610|    0.032067|   -0.040154|    2.839672|    1.879384|    0.172618|
|         266|           0|   -2.614241|    0.024239|   -0.049161|    2.832878|    1.879164|    0.171817|
|         267|           0|   -2.624789|    0.017316|   -0.056660|    2.824593|    1.878596|    0.170984|
|         268|           0|   -2.636300|    0.011475|   -0.062561|    2.814658|    1.877707|    0.170130|
|         269|           0|   -2.648647|    0.006784|   -0.066891|    2.803120|    1.876519|    0.169266|
|         270|           0|   -2.661631|    0.003251|   -0.069827|    2.790124|    1.875065|    0.168405|
+-----------------------------------------------------------------------+
|        File Writing Summary       |              Filename             |
+-----------------------------------------------------------------------+
|SU2 restart                        |solution_flow.dat                  |
|Paraview                           |flow.vtu                           |
|Paraview surface                   |surface_flow.vtu                   |
+-----------------------------------------------------------------------+

Writing the forces breakdown file (forces_breakdown.dat).
+-------------------------------------------------------------------------------------------------------+
|  Inner_Iter|   Time_Iter|    rms[Rho]|   rms[RhoU]|   rms[RhoV]|   rms[RhoE]|          CL|          CD|
+-------------------------------------------------------------------------------------------------------+
|         271|           0|   -2.674898|    0.000759|   -0.071596|    2.775982|    1.873376|    0.167555|
|         272|           0|   -2.688225|   -0.000894|   -0.072518|    2.760861|    1.871487|    0.166730|
|         273|           0|   -2.701419|   -0.001973|   -0.072940|    2.744938|    1.869436|    0.165938|
|         274|           0|   -2.714335|   -0.002764|   -0.073208|    2.728346|    1.867262|    0.165191|
|         275|           0|   -2.726645|   -0.003562|   -0.073649|    2.711585|    1.865003|    0.164496|
|         276|           0|   -2.738184|   -0.004559|   -0.074548|    2.694987|    1.862701|    0.163863|
|         277|           0|   -2.748815|   -0.006031|   -0.076136|    2.678944|    1.860392|    0.163298|
|         278|           0|   -2.758320|   -0.008208|   -0.078599|    2.663994|    1.858117|    0.162809|
|         279|           0|   -2.766635|   -0.011286|   -0.082076|    2.650571|    1.855911|    0.162399|
|         280|           0|   -2.773772|   -0.015387|   -0.086614|    2.639008|    1.853812|    0.162073|
+-----------------------------------------------------------------------+
|        File Writing Summary       |              Filename             |
+-----------------------------------------------------------------------+
|SU2 restart                        |solution_flow.dat                  |
|Paraview                           |flow.vtu                           |
|Paraview surface                   |surface_flow.vtu                   |
+-----------------------------------------------------------------------+

Writing the forces breakdown file (forces_breakdown.dat).
+-------------------------------------------------------------------------------------------------------+
|  Inner_Iter|   Time_Iter|    rms[Rho]|   rms[RhoU]|   rms[RhoV]|   rms[RhoE]|          CL|          CD|
+-------------------------------------------------------------------------------------------------------+
|         281|           0|   -2.779744|   -0.020569|   -0.092278|    2.629610|    1.851850|    0.161834|
|         282|           0|   -2.784639|   -0.027016|   -0.099049|    2.622540|    1.850057|    0.161684|
|         283|           0|   -2.788623|   -0.034809|   -0.106894|    2.617779|    1.848458|    0.161623|
|         284|           0|   -2.791946|   -0.043941|   -0.115698|    2.615031|    1.847079|    0.161651|
|         285|           0|   -2.794764|   -0.054417|   -0.125332|    2.614037|    1.845939|    0.161765|
|         286|           0|   -2.797336|   -0.066188|   -0.135581|    2.614331|    1.845056|    0.161963|
|         287|           0|   -2.799903|   -0.079163|   -0.146202|    2.615409|    1.844440|    0.162241|
|         288|           0|   -2.802657|   -0.093209|   -0.156893|    2.616819|    1.844101|    0.162595|
|         289|           0|   -2.805714|   -0.108168|   -0.167303|    2.618213|    1.844043|    0.163018|
|         290|           0|   -2.809238|   -0.123837|   -0.177111|    2.619205|    1.844268|    0.163504|
+-----------------------------------------------------------------------+
|        File Writing Summary       |              Filename             |
+-----------------------------------------------------------------------+
|SU2 restart                        |solution_flow.dat                  |
|Paraview                           |flow.vtu                           |
|Paraview surface                   |surface_flow.vtu                   |
+-----------------------------------------------------------------------+

Writing the forces breakdown file (forces_breakdown.dat).
+-------------------------------------------------------------------------------------------------------+
|  Inner_Iter|   Time_Iter|    rms[Rho]|   rms[RhoU]|   rms[RhoV]|   rms[RhoE]|          CL|          CD|
+-------------------------------------------------------------------------------------------------------+
|         291|           0|   -2.813375|   -0.139950|   -0.185957|    2.619455|    1.844770|    0.164044|
|         292|           0|   -2.818196|   -0.156200|   -0.193519|    2.618742|    1.845546|    0.164634|
|         293|           0|   -2.823707|   -0.172211|   -0.199537|    2.616937|    1.846583|    0.165262|
|         294|           0|   -2.829947|   -0.187572|   -0.203828|    2.613893|    1.847870|    0.165922|
|         295|           0|   -2.836868|   -0.201862|   -0.206337|    2.609568|    1.849390|    0.166604|
|         296|           0|   -2.844427|   -0.214700|   -0.207120|    2.603935|    1.851123|    0.167300|
|         297|           0|   -2.852504|   -0.225749|   -0.206331|    2.597072|    1.853048|    0.168000|
|         298|           0|   -2.860982|   -0.234690|   -0.204210|    2.589065|    1.855141|    0.168695|
|         299|           0|   -2.869797|   -0.241480|   -0.201057|    2.579953|    1.857377|    0.169378|
|         300|           0|   -2.878802|   -0.246131|   -0.197181|    2.569888|    1.859731|    0.170039|
+-----------------------------------------------------------------------+
|        File Writing Summary       |              Filename             |
+-----------------------------------------------------------------------+
|SU2 restart                        |solution_flow.dat                  |
|Paraview                           |flow.vtu                           |
|Paraview surface                   |surface_flow.vtu                   |
+-----------------------------------------------------------------------+

Writing the forces breakdown file (forces_breakdown.dat).
+-------------------------------------------------------------------------------------------------------+
|  Inner_Iter|   Time_Iter|    rms[Rho]|   rms[RhoU]|   rms[RhoV]|   rms[RhoE]|          CL|          CD|
+-------------------------------------------------------------------------------------------------------+
|         301|           0|   -2.887860|   -0.248795|   -0.192903|    2.559033|    1.862172|    0.170671|
|         302|           0|   -2.896869|   -0.249755|   -0.188515|    2.547538|    1.864676|    0.171267|
|         303|           0|   -2.905610|   -0.249383|   -0.184289|    2.535738|    1.867213|    0.171820|
|         304|           0|   -2.913915|   -0.248073|   -0.180462|    2.523957|    1.869756|    0.172325|
|         305|           0|   -2.921637|   -0.246212|   -0.177215|    2.512554|    1.872278|    0.172775|
|         306|           0|   -2.928796|   -0.244142|   -0.174673|    2.501684|    1.874753|    0.173167|
|         307|           0|   -2.935427|   -0.242169|   -0.172938|    2.491529|    1.877155|    0.173498|
|         308|           0|   -2.941504|   -0.240538|   -0.172061|    2.482357|    1.879462|    0.173763|
|         309|           0|   -2.947041|   -0.239623|   -0.172069|    2.474318|    1.881651|    0.173962|
|         310|           0|   -2.952209|   -0.239336|   -0.172973|    2.467394|    1.883704|    0.174094|
+-----------------------------------------------------------------------+
|        File Writing Summary       |              Filename             |
+-----------------------------------------------------------------------+
|SU2 restart                        |solution_flow.dat                  |
|Paraview                           |flow.vtu                           |
|Paraview surface                   |surface_flow.vtu                   |
+-----------------------------------------------------------------------+

Writing the forces breakdown file (forces_breakdown.dat).
+-------------------------------------------------------------------------------------------------------+
|  Inner_Iter|   Time_Iter|    rms[Rho]|   rms[RhoU]|   rms[RhoV]|   rms[RhoE]|          CL|          CD|
+-------------------------------------------------------------------------------------------------------+
|         311|           0|   -2.957153|   -0.239772|   -0.174721|    2.461509|    1.885603|    0.174157|
|         312|           0|   -2.961995|   -0.240972|   -0.177261|    2.456577|    1.887334|    0.174154|
|         313|           0|   -2.966972|   -0.242917|   -0.180519|    2.452329|    1.888884|    0.174086|
|         314|           0|   -2.972148|   -0.245591|   -0.184409|    2.448658|    1.890243|    0.173955|
|         315|           0|   -2.977657|   -0.248931|   -0.188809|    2.445324|    1.891404|    0.173765|
|         316|           0|   -2.983677|   -0.252852|   -0.193613|    2.442007|    1.892363|    0.173519|
|         317|           0|   -2.990365|   -0.257240|   -0.198717|    2.438392|    1.893120|    0.173222|
|         318|           0|   -2.997808|   -0.261977|   -0.204014|    2.434253|    1.893675|    0.172879|
|         319|           0|   -3.006080|   -0.266940|   -0.209383|    2.429386|    1.894031|    0.172496|
|         320|           0|   -3.015212|   -0.271985|   -0.214731|    2.423638|    1.894196|    0.172078|
+-----------------------------------------------------------------------+
|        File Writing Summary       |              Filename             |
+-----------------------------------------------------------------------+
|SU2 restart                        |solution_flow.dat                  |
|Paraview                           |flow.vtu                           |
|Paraview surface                   |surface_flow.vtu                   |
+-----------------------------------------------------------------------+

Writing the forces breakdown file (forces_breakdown.dat).
+-------------------------------------------------------------------------------------------------------+
|  Inner_Iter|   Time_Iter|    rms[Rho]|   rms[RhoU]|   rms[RhoV]|   rms[RhoE]|          CL|          CD|
+-------------------------------------------------------------------------------------------------------+
|         321|           0|   -3.025164|   -0.276983|   -0.219977|    2.416936|    1.894178|    0.171631|
|         322|           0|   -3.035981|   -0.281814|   -0.225060|    2.409105|    1.893987|    0.171163|
|         323|           0|   -3.047594|   -0.286414|   -0.229942|    2.400112|    1.893638|    0.170680|
|         324|           0|   -3.060024|   -0.290659|   -0.234589|    2.389822|    1.893145|    0.170188|
|         325|           0|   -3.073106|   -0.294506|   -0.238998|    2.378335|    1.892523|    0.169694|
|         326|           0|   -3.086700|   -0.297951|   -0.243182|    2.365706|    1.891789|    0.169205|
|         327|           0|   -3.100669|   -0.301018|   -0.247179|    2.352007|    1.890962|    0.168726|
|         328|           0|   -3.114807|   -0.303770|   -0.251040|    2.337362|    1.890059|    0.168264|
|         329|           0|   -3.129137|   -0.306304|   -0.254818|    2.321601|    1.889102|    0.167825|
|         330|           0|   -3.143226|   -0.308702|   -0.258564|    2.305257|    1.888110|    0.167414|
+-----------------------------------------------------------------------+
|        File Writing Summary       |              Filename             |
+-----------------------------------------------------------------------+
|SU2 restart                        |solution_flow.dat                  |
|Paraview                           |flow.vtu                           |
|Paraview surface                   |surface_flow.vtu                   |
+-----------------------------------------------------------------------+

Writing the forces breakdown file (forces_breakdown.dat).
+-------------------------------------------------------------------------------------------------------+
|  Inner_Iter|   Time_Iter|    rms[Rho]|   rms[RhoU]|   rms[RhoV]|   rms[RhoE]|          CL|          CD|
+-------------------------------------------------------------------------------------------------------+
|         331|           0|   -3.156912|   -0.311074|   -0.262348|    2.288520|    1.887101|    0.167035|
|         332|           0|   -3.170015|   -0.313536|   -0.266228|    2.271655|    1.886094|    0.166693|
|         333|           0|   -3.182334|   -0.316211|   -0.270257|    2.254992|    1.885107|    0.166390|
|         334|           0|   -3.193694|   -0.319215|   -0.274478|    2.238909|    1.884159|    0.166132|
|         335|           0|   -3.203957|   -0.322645|   -0.278925|    2.223812|    1.883266|    0.165919|
|         336|           0|   -3.213054|   -0.326590|   -0.283611|    2.210049|    1.882443|    0.165753|
|         337|           0|   -3.220939|   -0.331114|   -0.288533|    2.197987|    1.881704|    0.165636|
|         338|           0|   -3.227665|   -0.336277|   -0.293673|    2.187861|    1.881061|    0.165569|
|         339|           0|   -3.233287|   -0.342124|   -0.298998|    2.179838|    1.880526|    0.165550|
|         340|           0|   -3.237940|   -0.348668|   -0.304455|    2.173920|    1.880106|    0.165580|
+-----------------------------------------------------------------------+
|        File Writing Summary       |              Filename             |
+-----------------------------------------------------------------------+
|SU2 restart                        |solution_flow.dat                  |
|Paraview                           |flow.vtu                           |
|Paraview surface                   |surface_flow.vtu                   |
+-----------------------------------------------------------------------+

Writing the forces breakdown file (forces_breakdown.dat).
+-------------------------------------------------------------------------------------------------------+
|  Inner_Iter|   Time_Iter|    rms[Rho]|   rms[RhoU]|   rms[RhoV]|   rms[RhoE]|          CL|          CD|
+-------------------------------------------------------------------------------------------------------+
|         341|           0|   -3.241774|   -0.355905|   -0.309972|    2.169990|    1.879810|    0.165657|
|         342|           0|   -3.244991|   -0.363811|   -0.315491|    2.167778|    1.879642|    0.165779|
|         343|           0|   -3.247806|   -0.372338|   -0.320934|    2.166931|    1.879606|    0.165942|
|         344|           0|   -3.250432|   -0.381426|   -0.326222|    2.167043|    1.879704|    0.166146|
|         345|           0|   -3.253105|   -0.391004|   -0.331269|    2.167660|    1.879936|    0.166385|
|         346|           0|   -3.255972|   -0.400967|   -0.335994|    2.168437|    1.880299|    0.166657|
|         347|           0|   -3.259080|   -0.411192|   -0.340325|    2.169149|    1.880791|    0.166958|
|         348|           0|   -3.262535|   -0.421545|   -0.344201|    2.169511|    1.881406|    0.167282|
|         349|           0|   -3.266411|   -0.431873|   -0.347591|    2.169298|    1.882138|    0.167626|
[...]
|         905|           0|   -4.351408|   -1.821190|   -1.932442|    1.139462|    1.945899|    0.171845|
|         906|           0|   -4.266305|   -1.490458|   -1.858288|    1.262307|    1.945905|    0.171845|
|         907|           0|   -4.222420|   -1.315072|   -1.775106|    1.332227|    1.945911|    0.171845|
|         908|           0|   -4.223295|   -1.229694|   -1.715635|    1.349916|    1.945916|    0.171845|
|         909|           0|   -4.261615|   -1.204204|   -1.689849|    1.322655|    1.945922|    0.171845|
|         910|           0|   -4.320775|   -1.221992|   -1.698323|    1.260830|    1.945928|    0.171845|
+-----------------------------------------------------------------------+
|        File Writing Summary       |              Filename             |
+-----------------------------------------------------------------------+
|SU2 restart                        |solution_flow.dat                  |
|Paraview                           |flow.vtu                           |
|Paraview surface                   |surface_flow.vtu                   |
+-----------------------------------------------------------------------+

Writing the forces breakdown file (forces_breakdown.dat).
+-------------------------------------------------------------------------------------------------------+
|  Inner_Iter|   Time_Iter|    rms[Rho]|   rms[RhoU]|   rms[RhoV]|   rms[RhoE]|          CL|          CD|
+-------------------------------------------------------------------------------------------------------+
|         911|           0|   -4.379026|   -1.274168|   -1.739621|    1.175304|    1.945934|    0.171845|
|         912|           0|   -4.413704|   -1.358272|   -1.809264|    1.083829|    1.945939|    0.171845|
|         913|           0|   -4.410870|   -1.476941|   -1.890613|    1.027684|    1.945946|    0.171846|
|         914|           0|   -4.376888|   -1.635050|   -1.944786|    1.047206|    1.945951|    0.171846|
|         915|           0|   -4.329808|   -1.806928|   -1.940459|    1.117260|    1.945957|    0.171846|
|         916|           0|   -4.279294|   -1.788474|   -1.896381|    1.199331|    1.945961|    0.171846|
|         917|           0|   -4.228799|   -1.569631|   -1.837455|    1.279935|    1.945967|    0.171846|
|         918|           0|   -4.171959|   -1.356313|   -1.767420|    1.364223|    1.945972|    0.171846|
|         919|           0|   -4.106555|   -1.176490|   -1.685142|    1.453320|    1.945979|    0.171847|
|         920|           0|   -4.155117|   -1.138929|   -1.668450|    1.422941|    1.945985|    0.171847|
+-----------------------------------------------------------------------+
|        File Writing Summary       |              Filename             |
+-----------------------------------------------------------------------+
|SU2 restart                        |solution_flow.dat                  |
|Paraview                           |flow.vtu                           |
|Paraview surface                   |surface_flow.vtu                   |
+-----------------------------------------------------------------------+

Writing the forces breakdown file (forces_breakdown.dat).
+-------------------------------------------------------------------------------------------------------+
|  Inner_Iter|   Time_Iter|    rms[Rho]|   rms[RhoU]|   rms[RhoV]|   rms[RhoE]|          CL|          CD|
+-------------------------------------------------------------------------------------------------------+
|         921|           0|   -4.334820|   -1.245008|   -1.737687|    1.243838|    1.945991|    0.171847|
|         922|           0|   -4.426689|   -1.350209|   -1.806342|    1.102222|    1.945996|    0.171847|
|         923|           0|   -4.434458|   -1.452526|   -1.866366|    1.030174|    1.946003|    0.171847|
|         924|           0|   -4.424842|   -1.549879|   -1.915107|    1.006811|    1.946007|    0.171847|
|         925|           0|   -4.428702|   -1.638715|   -1.951562|    0.992864|    1.946013|    0.171848|
|         926|           0|   -4.451388|   -1.713438|   -1.975949|    0.969247|    1.946018|    0.171847|
|         927|           0|   -4.490983|   -1.768883|   -1.990440|    0.932383|    1.946024|    0.171848|
|         928|           0|   -4.436620|   -2.019823|   -1.999767|    1.015982|    1.946029|    0.171848|
|         929|           0|   -4.329535|   -1.735358|   -1.954501|    1.170834|    1.946035|    0.171848|
|         930|           0|   -4.252590|   -1.442581|   -1.861763|    1.282589|    1.946041|    0.171849|
+-----------------------------------------------------------------------+
|        File Writing Summary       |              Filename             |
+-----------------------------------------------------------------------+
|SU2 restart                        |solution_flow.dat                  |
|Paraview                           |flow.vtu                           |
|Paraview surface                   |surface_flow.vtu                   |
+-----------------------------------------------------------------------+

Writing the forces breakdown file (forces_breakdown.dat).
+-------------------------------------------------------------------------------------------------------+
|  Inner_Iter|   Time_Iter|    rms[Rho]|   rms[RhoU]|   rms[RhoV]|   rms[RhoE]|          CL|          CD|
+-------------------------------------------------------------------------------------------------------+
|         931|           0|   -4.218554|   -1.290241|   -1.773978|    1.340761|    1.946046|    0.171849|
|         932|           0|   -4.228646|   -1.219766|   -1.717801|    1.347807|    1.946049|    0.171849|
|         933|           0|   -4.273257|   -1.204876|   -1.698301|    1.312033|    1.946055|    0.171850|
|         934|           0|   -4.334255|   -1.230780|   -1.714538|    1.244011|    1.946060|    0.171850|
|         935|           0|   -4.389188|   -1.290094|   -1.764890|    1.155132|    1.946065|    0.171850|
|         936|           0|   -4.416367|   -1.381662|   -1.844064|    1.066769|    1.946070|    0.171850|
|         937|           0|   -4.405559|   -1.509201|   -1.930990|    1.025286|    1.946075|    0.171851|
|         938|           0|   -4.367276|   -1.677118|   -1.978678|    1.059866|    1.946080|    0.171850|
|         939|           0|   -4.318636|   -1.835676|   -1.960117|    1.135222|    1.946085|    0.171851|
|         940|           0|   -4.268685|   -1.751146|   -1.905737|    1.216682|    1.946089|    0.171851|
+-----------------------------------------------------------------------+
|        File Writing Summary       |              Filename             |
+-----------------------------------------------------------------------+
|SU2 restart                        |solution_flow.dat                  |
|Paraview                           |flow.vtu                           |
|Paraview surface                   |surface_flow.vtu                   |
+-----------------------------------------------------------------------+

Writing the forces breakdown file (forces_breakdown.dat).
+-------------------------------------------------------------------------------------------------------+
|  Inner_Iter|   Time_Iter|    rms[Rho]|   rms[RhoU]|   rms[RhoV]|   rms[RhoE]|          CL|          CD|
+-------------------------------------------------------------------------------------------------------+
|         941|           0|   -4.217302|   -1.521657|   -1.839108|    1.297673|    1.946094|    0.171851|
|         942|           0|   -4.158430|   -1.314747|   -1.761794|    1.383317|    1.946097|    0.171851|
|         943|           0|   -4.091875|   -1.141758|   -1.673850|    1.472574|    1.946103|    0.171851|
|         944|           0|   -4.199489|   -1.162979|   -1.691681|    1.381577|    1.946107|    0.171851|
|         945|           0|   -4.364864|   -1.269212|   -1.765177|    1.207170|    1.946113|    0.171852|
|         946|           0|   -4.433269|   -1.374178|   -1.836626|    1.079647|    1.946117|    0.171852|
|         947|           0|   -4.431977|   -1.475976|   -1.899278|    1.022159|    1.946122|    0.171852|
|         948|           0|   -4.424080|   -1.572370|   -1.950494|    1.003778|    1.946126|    0.171852|
|         949|           0|   -4.432156|   -1.659323|   -1.988729|    0.988519|    1.946131|    0.171852|
|         950|           0|   -4.458917|   -1.730892|   -2.013907|    0.961934|    1.946134|    0.171852|
+-----------------------------------------------------------------------+
|        File Writing Summary       |              Filename             |
+-----------------------------------------------------------------------+
|SU2 restart                        |solution_flow.dat                  |
|Paraview                           |flow.vtu                           |
|Paraview surface                   |surface_flow.vtu                   |
+-----------------------------------------------------------------------+

Writing the forces breakdown file (forces_breakdown.dat).
+-------------------------------------------------------------------------------------------------------+
|  Inner_Iter|   Time_Iter|    rms[Rho]|   rms[RhoU]|   rms[RhoV]|   rms[RhoE]|          CL|          CD|
+-------------------------------------------------------------------------------------------------------+
|         951|           0|   -4.501157|   -1.782556|   -2.028566|    0.923114|    1.946139|    0.171852|
|         952|           0|   -4.412347|   -2.049189|   -2.032051|    1.050607|    1.946143|    0.171852|
|         953|           0|   -4.309023|   -1.658447|   -1.962644|    1.199772|    1.946149|    0.171853|
|         954|           0|   -4.240044|   -1.400790|   -1.856170|    1.300941|    1.946153|    0.171853|
|         955|           0|   -4.215459|   -1.268386|   -1.767940|    1.348053|    1.946158|    0.171854|
|         956|           0|   -4.233891|   -1.211190|   -1.716807|    1.345327|    1.946161|    0.171854|
|         957|           0|   -4.283800|   -1.205907|   -1.704147|    1.301805|    1.946165|    0.171854|
|         958|           0|   -4.345630|   -1.239347|   -1.728231|    1.228273|    1.946168|    0.171854|
|         959|           0|   -4.396210|   -1.305515|   -1.787395|    1.137147|    1.946172|    0.171854|
|         960|           0|   -4.415742|   -1.404433|   -1.875187|    1.053940|    1.946176|    0.171854|
+-----------------------------------------------------------------------+
|        File Writing Summary       |              Filename             |
+-----------------------------------------------------------------------+
|SU2 restart                        |solution_flow.dat                  |
|Paraview                           |flow.vtu                           |
|Paraview surface                   |surface_flow.vtu                   |
+-----------------------------------------------------------------------+

Writing the forces breakdown file (forces_breakdown.dat).
+-------------------------------------------------------------------------------------------------------+
|  Inner_Iter|   Time_Iter|    rms[Rho]|   rms[RhoU]|   rms[RhoV]|   rms[RhoE]|          CL|          CD|
+-------------------------------------------------------------------------------------------------------+
|         961|           0|   -4.398124|   -1.540715|   -1.964843|    1.027783|    1.946181|    0.171855|
|         962|           0|   -4.356517|   -1.716562|   -2.001887|    1.074876|    1.946185|    0.171854|
|         963|           0|   -4.307116|   -1.847589|   -1.969273|    1.153320|    1.946190|    0.171855|
|         964|           0|   -4.257488|   -1.706676|   -1.906621|    1.234190|    1.946193|    0.171854|
|         965|           0|   -4.205006|   -1.475998|   -1.834056|    1.315730|    1.946199|    0.171855|
|         966|           0|   -4.144263|   -1.275862|   -1.751133|    1.402515|    1.946202|    0.171855|
|         967|           0|   -4.077236|   -1.109514|   -1.659502|    1.491295|    1.946206|    0.171855|
|         968|           0|   -4.243520|   -1.188184|   -1.713200|    1.338909|    1.946209|    0.171855|
|         969|           0|   -4.388297|   -1.294550|   -1.790477|    1.172488|    1.946214|    0.171855|
|         970|           0|   -4.433547|   -1.399209|   -1.864143|    1.062124|    1.946217|    0.171856|
+-----------------------------------------------------------------------+
|        File Writing Summary       |              Filename             |
+-----------------------------------------------------------------------+
|SU2 restart                        |solution_flow.dat                  |
|Paraview                           |flow.vtu                           |
|Paraview surface                   |surface_flow.vtu                   |
+-----------------------------------------------------------------------+

Writing the forces breakdown file (forces_breakdown.dat).
+-------------------------------------------------------------------------------------------------------+
|  Inner_Iter|   Time_Iter|    rms[Rho]|   rms[RhoU]|   rms[RhoV]|   rms[RhoE]|          CL|          CD|
+-------------------------------------------------------------------------------------------------------+
|         971|           0|   -4.426958|   -1.500340|   -1.928753|    1.017984|    1.946221|    0.171856|
|         972|           0|   -4.422232|   -1.595451|   -1.981668|    1.002740|    1.946223|    0.171855|
|         973|           0|   -4.434982|   -1.679960|   -2.020858|    0.985327|    1.946227|    0.171856|
|         974|           0|   -4.466272|   -1.747677|   -2.046118|    0.955118|    1.946231|    0.171856|
|         975|           0|   -4.497805|   -1.827152|   -2.062405|    0.929978|    1.946235|    0.171856|
|         976|           0|   -4.386856|   -1.997250|   -2.050913|    1.087314|    1.946238|    0.171856|
|         977|           0|   -4.289660|   -1.586074|   -1.957163|    1.227441|    1.946243|    0.171857|
|         978|           0|   -4.230025|   -1.362780|   -1.843598|    1.316665|    1.946246|    0.171857|
|         979|           0|   -4.215558|   -1.249846|   -1.759316|    1.352063|    1.946250|    0.171857|
|         980|           0|   -4.242410|   -1.205771|   -1.715385|    1.339295|    1.946253|    0.171857|
+-----------------------------------------------------------------------+
|        File Writing Summary       |              Filename             |
+-----------------------------------------------------------------------+
|SU2 restart                        |solution_flow.dat                  |
|Paraview                           |flow.vtu                           |
|Paraview surface                   |surface_flow.vtu                   |
+-----------------------------------------------------------------------+

Writing the forces breakdown file (forces_breakdown.dat).
+-------------------------------------------------------------------------------------------------------+
|  Inner_Iter|   Time_Iter|    rms[Rho]|   rms[RhoU]|   rms[RhoV]|   rms[RhoE]|          CL|          CD|
+-------------------------------------------------------------------------------------------------------+
|         981|           0|   -4.296812|   -1.210029|   -1.710707|    1.288162|    1.946256|    0.171857|
|         982|           0|   -4.358350|   -1.251116|   -1.743351|    1.209322|    1.946258|    0.171856|
|         983|           0|   -4.403521|   -1.324489|   -1.811553|    1.116810|    1.946262|    0.171856|
|         984|           0|   -4.414440|   -1.431376|   -1.906746|    1.041814|    1.946265|    0.171856|
|         985|           0|   -4.389946|   -1.577200|   -1.994485|    1.033330|    1.946269|    0.171857|
|         986|           0|   -4.345787|   -1.758941|   -2.015774|    1.091126|    1.946272|    0.171857|
|         987|           0|   -4.295667|   -1.843113|   -1.969859|    1.171813|    1.946275|    0.171856|
|         988|           0|   -4.245936|   -1.655733|   -1.900917|    1.252370|    1.946278|    0.171856|
|         989|           0|   -4.192105|   -1.428715|   -1.823524|    1.334690|    1.946282|    0.171857|
|         990|           0|   -4.129347|   -1.235997|   -1.735987|    1.422649|    1.946284|    0.171856|
+-----------------------------------------------------------------------+
|        File Writing Summary       |              Filename             |
+-----------------------------------------------------------------------+
|SU2 restart                        |solution_flow.dat                  |
|Paraview                           |flow.vtu                           |
|Paraview surface                   |surface_flow.vtu                   |
+-----------------------------------------------------------------------+

Writing the forces breakdown file (forces_breakdown.dat).
+-------------------------------------------------------------------------------------------------------+
|  Inner_Iter|   Time_Iter|    rms[Rho]|   rms[RhoU]|   rms[RhoV]|   rms[RhoE]|          CL|          CD|
+-------------------------------------------------------------------------------------------------------+
|         991|           0|   -4.090678|   -1.105338|   -1.661552|    1.481670|    1.946288|    0.171856|
|         992|           0|   -4.282505|   -1.211658|   -1.734625|    1.299586|    1.946290|    0.171856|
|         993|           0|   -4.405866|   -1.317947|   -1.814227|    1.142387|    1.946295|    0.171857|
|         994|           0|   -4.433161|   -1.422161|   -1.889238|    1.048181|    1.946297|    0.171857|
|         995|           0|   -4.423983|   -1.522483|   -1.955070|    1.014323|    1.946302|    0.171857|
|         996|           0|   -4.422942|   -1.616068|   -2.008912|    1.000081|    1.946304|    0.171857|
|         997|           0|   -4.439727|   -1.697795|   -2.048293|    0.980501|    1.946306|    0.171857|
|         998|           0|   -4.474715|   -1.761469|   -2.073065|    0.947365|    1.946309|    0.171857|
|         999|           0|   -4.472294|   -1.924306|   -2.091216|    0.964848|    1.946312|    0.171858|

----------------------------- Solver Exit -------------------------------

Maximum number of iterations reached (ITER = 1000) before convergence.
+-----------------------------------------------------------------------+
|      Convergence Field     |     Value    |   Criterion  |  Converged |
+-----------------------------------------------------------------------+
|                  Cauchy[CD]|   1.59306e-06|       < 1e-10|          No|
+-----------------------------------------------------------------------+
-------------------------------------------------------------------------
+-----------------------------------------------------------------------+
|        File Writing Summary       |              Filename             |
+-----------------------------------------------------------------------+
|SU2 restart                        |solution_flow.dat                  |
|Paraview                           |flow.vtu                           |
|Paraview surface                   |surface_flow.vtu                   |
+-----------------------------------------------------------------------+

Writing the forces breakdown file (forces_breakdown.dat).

------------------------- Solver Postprocessing -------------------------
Deleted CNumerics container.
Deleted CIntegration container.
Deleted CSolver container.
Deleted CIteration container.
Deleted CInterpolator container.
Deleted CInterface container.
Deleted CGeometry container.
Deleted CFreeFormDefBox class.
Deleted CSurfaceMovement class.
Deleted CVolumetricMovement class.
Deleted CConfig container.
Deleted nInst container.
Deleted COutput class.
-------------------------------------------------------------------------

------------------------- Exit Success (SU2_CFD) ------------------------

