
-------------------------------------------------------------------------
|    ___ _   _ ___                                                      |
|   / __| | | |_  )   Release 7.0.6 "Blackbird"                         |
|   \__ \ |_| |/ /                                                      |
|   |___/\___//___|   Suite (Computational Fluid Dynamics Code)         |
|                                                                       |
-------------------------------------------------------------------------
| SU2 Project Website: https://su2code.github.io                        |
|                                                                       |
| The SU2 Project is maintained by the SU2 Foundation                   |
| (http://su2foundation.org)                                            |
-------------------------------------------------------------------------
| Copyright 2012-2020, SU2 Contributors                                 |
|                                                                       |
| SU2 is free software; you can redistribute it and/or                  |
| modify it under the terms of the GNU Lesser General Public            |
| License as published by the Free Software Foundation; either          |

-------------------------------------------------------------------------
|    ___ _   _ ___                                                      |
|   / __| | | |_  )   Release 7.0.6 "Blackbird"                         |
|   \__ \ |_| |/ /                                                      |
|   |___/\___//___|   Suite (Computational Fluid Dynamics Code)         |
|                                                                       |
-------------------------------------------------------------------------
| SU2 Project Website: https://su2code.github.io                        |
|                                                                       |
| The SU2 Project is maintained by the SU2 Foundation                   |
| (http://su2foundation.org)                                            |
-------------------------------------------------------------------------
| Copyright 2012-2020, SU2 Contributors                                 |
|                                                                       |
| SU2 is free software; you can redistribute it and/or                  |
| modify it under the terms of the GNU Lesser General Public            |
| License as published by the Free Software Foundation; either          |
| version 2.1 of the License, or (at your option) any later version.    |
|                                                                       |
| SU2 is distributed in the hope that it will be useful,                |
| but WITHOUT ANY WARRANTY; without even the implied warranty of        |
| MERCHANTABILITY or FITNESS FOR A PARTICULAR PURPOSE. See the GNU      |
| Lesser General Public License for more details.                       |
|                                                                       |
| You should have received a copy of the GNU Lesser General Public      |
| License along with SU2. If not, see <http://www.gnu.org/licenses/>.   |
-------------------------------------------------------------------------

-------------------------------------------------------------------------
|    ___ _   _ ___                                                      |
|   / __| | | |_  )   Release 7.0.6 "Blackbird"                         |
|   \__ \ |_| |/ /                                                      |
|   |___/\___//___|   Suite (Computational Fluid Dynamics Code)         |
|                                                                       |
-------------------------------------------------------------------------
| SU2 Project Website: https://su2code.github.io                        |
|                                                                       |
| The SU2 Project is maintained by the SU2 Foundation                   |
| (http://su2foundation.org)                                            |
-------------------------------------------------------------------------
| Copyright 2012-2020, SU2 Contributors                                 |
|                                                                       |
| SU2 is free software; you can redistribute it and/or                  |
| modify it under the terms of the GNU Lesser General Public            |
| License as published by the Free Software Foundation; either          || version 2.1 of the License, or (at your option) any later version.    |
|                                                                       |
| SU2 is distributed in the hope that it will be useful,                |
| but WITHOUT ANY WARRANTY; without even the implied warranty of        |
| MERCHANTABILITY or FITNESS FOR A PARTICULAR PURPOSE. See the GNU      |
| Lesser General Public License for more details.                       |
|                                                                       |
| You should have received a copy of the GNU Lesser General Public      |
| License along with SU2. If not, see <http://www.gnu.org/licenses/>.   |
-------------------------------------------------------------------------

| version 2.1 of the License, or (at your option) any later version.    |
|                                                                       |
| SU2 is distributed in the hope that it will be useful,                |
| but WITHOUT ANY WARRANTY; without even the implied warranty of        |
| MERCHANTABILITY or FITNESS FOR A PARTICULAR PURPOSE. See the GNU      |
| Lesser General Public License for more details.                       |
|                                                                       |
| You should have received a copy of the GNU Lesser General Public      |
| License along with SU2. If not, see <http://www.gnu.org/licenses/>.   |
-------------------------------------------------------------------------

-------------------------------------------------------------------------
|    ___ _   _ ___                                                      |
|   / __| | | |_  )   Release 7.0.6 "Blackbird"                         |
|   \__ \ |_| |/ /                                                      |
|   |___/\___//___|   Suite (Computational Fluid Dynamics Code)         |
|                                                                       |
-------------------------------------------------------------------------
| SU2 Project Website: https://su2code.github.io                        |
|                                                                       |
| The SU2 Project is maintained by the SU2 Foundation                   |
| (http://su2foundation.org)                                            |
-------------------------------------------------------------------------

-------------------------------------------------------------------------
|    ___ _   _ ___                                                      |
|   / __| | | |_  )   Release 7.0.6 "Blackbird"                         |
|   \__ \ |_| |/ /                                                      |
|   |___/\___//___|   Suite (Computational Fluid Dynamics Code)         |
|                                                                       |
-------------------------------------------------------------------------
| SU2 Project Website: https://su2code.github.io                        |
|                                                                       |
| The SU2 Project is maintained by the SU2 Foundation                   |
| (http://su2foundation.org)                                            |
-------------------------------------------------------------------------
| Copyright 2012-2020, SU2 Contributors                                 |
|                                                                       |
| SU2 is free software; you can redistribute it and/or                  |
| modify it under the terms of the GNU Lesser General Public            || Copyright 2012-2020, SU2 Contributors                                 |
|                                                                       |
| SU2 is free software; you can redistribute it and/or                  |
| modify it under the terms of the GNU Lesser General Public            |

| License as published by the Free Software Foundation; either          |
| version 2.1 of the License, or (at your option) any later version.    |
|                                                                       |
| SU2 is distributed in the hope that it will be useful,                |
| but WITHOUT ANY WARRANTY; without even the implied warranty of        |
| License as published by the Free Software Foundation; either          |
| version 2.1 of the License, or (at your option) any later version.    |
|                                                                       |
| SU2 is distributed in the hope that it will be useful,                |
| but WITHOUT ANY WARRANTY; without even the implied warranty of        |
| MERCHANTABILITY or FITNESS FOR A PARTICULAR PURPOSE. See the GNU      |
| Lesser General Public License for more details.                       |
|                                                                       |
| You should have received a copy of the GNU Lesser General Public      |
| License along with SU2. If not, see <http://www.gnu.org/licenses/>.   |
-------------------------------------------------------------------------
| MERCHANTABILITY or FITNESS FOR A PARTICULAR PURPOSE. See the GNU      |
| Lesser General Public License for more details.                       |
|                                                                       |
| You should have received a copy of the GNU Lesser General Public      |
| License along with SU2. If not, see <http://www.gnu.org/licenses/>.   |
-------------------------------------------------------------------------

Parsing config file for zone 0

Parsing config file for zone 0

Parsing config file for zone 0

Parsing config file for zone 0

Parsing config file for zone 0

----------------- Physical Case Definition ( Zone 0 ) -------------------

----------------- Physical Case Definition ( Zone 0 ) -------------------
Compressible Euler equations.
Mach number: 0.294.
Angle of attack (AoA): 10Compressible Euler equations.
Mach number: 0.294.
Angle of attack (AoA): 10 deg, and angle of sideslip (AoS):  deg, and angle of sideslip (AoS): 0 deg.
No restart solution, use the values at infinity (freestream).
Dimensional simulation.
The reference area is 10 m^2.
The semi-span will be computed using the max y(3D) value.
The reference length is 1 m.
----------------- Physical Case Definition ( Zone 0 ) -------------------
0 deg.
No restart solution, use the values at infinity (freestream).
Dimensional simulation.
The reference area is 10 m^2.
The semi-span will be computed using the max y(3D) value.
The reference length is 1 m.
Reference origin for moment evaluation is (0, 
Reference origin for moment evaluation is (0, 0, 0).
Surface(s) where the force coefficients are evaluated: Wing_1.

Surface(s) where the objective function is evaluated: airfoilCompressible Euler equations.
Mach number: 0.294.
Angle of attack (AoA): 10 deg, and angle of sideslip (AoS): 00, 0).
Surface(s) where the force coefficients are evaluated: Wing_1.

Surface(s) where the objective function is evaluated: airfoil.
Surface(s) plotted in the output file:  deg.
No restart solution, use the values at infinity (freestream).
Dimensional simulation.
The reference area is 10 m^2.
The semi-span will be computed using the max y(3D) value.
The reference length is 1 m.
Reference origin for moment evaluation is (.
Surface(s) plotted in the output file: Wing_1.
Surface(s) to be analyzed in detail: airfoil.
Surface(s) affected by the design variables: Wing_1.
Input mesh file name: /home/user/Documents/ICL/PDM/aeroframe_2/test/static/4_WingValidationSU2FramAT_case1/CFD/MESH/FlyingWing_baseline.su2

Wing_1.
Surface(s) to be analyzed in detail: airfoil.
Surface(s) affected by the design variables: Wing_1.
Input mesh file name: /home/user/Documents/ICL/PDM/aeroframe_2/test/static/4_WingValidationSU2FramAT_case1/CFD/MESH/FlyingWing_baseline.su2

--------------- Space Numerical Integration ( Zone --------------- Space Numerical Integration ( Zone 0 ) ------------------0, 0, 00 ) ------------------
Roe (with entropy fix = 0) solver for the flow inviscid terms.
Roe with DDES's FD low-dissipation function.
Second order integration in space, with slope limiter.
Venkatakrishnan slope-limiting method, with constant: 0.05).
Surface(s) where the force coefficients are evaluated: Wing_1.

Surface(s) where the objective function is evaluated: airfoil.
Surface(s) plotted in the output file: Wing_1.
Surface(s) to be analyzed in detail: airfoil.
Surface(s) affected by the design variables: Wing_1.
Input mesh file name: /home/user/Documents/ICL/PDM/aeroframe_2/test/static/4_WingValidationSU2FramAT_case1/CFD/MESH/FlyingWing_baseline.su2

Roe (with entropy fix = 0) solver for the flow inviscid terms.
Roe with DDES's FD low-dissipation function.
Second order integration in space, with slope limiter.
Venkatakrishnan slope-limiting method, with constant: 0.05. 
The reference element size is: 1. 
Gradient for upwind reconstruction: Green-Gauss.
. 
The reference element size is: 1. 
Gradient for upwind reconstruction: Green-Gauss.
--------------- Space Numerical Integration ( Zone 0 ) ------------------
Gradient for viscous and source terms: Green-Gauss.

--------------- Time Numerical Integration  ( Zone 0Roe (with entropy fix = 0) solver for the flow inviscid terms.
Roe with DDES's FD low-dissipation function.
Second order integration in space, with slope limiter.
Venkatakrishnan slope-limiting method, with constant: 
Gradient for viscous and source terms: Green-Gauss.

--------------- Time Numerical Integration  ( Zone 0 ) ------------------
Local time stepping (steady state simulation). ) ------------------
Local time stepping (steady state simulation).
Euler implicit method for the flow equations.
FGMRES is used for solving the linear system.
Using a ILU(
Euler implicit method for the flow equations.
FGMRES is used for solving the linear system.
Using a ILU(0) preconditioning.0.05. 
The reference element size is: 1. 
Gradient for upwind reconstruction: Green-Gauss.
Gradient for viscous and source terms: Green-Gauss.

--------------- Time Numerical Integration  ( Zone 0 ) ------------------
Local time stepping (steady state simulation).0) preconditioning.
Convergence criteria of the linear solver: 1e-06.
Max number of linear iterations: 5.
Convergence criteria of the linear solver: 1e-06.

V Multigrid Cycle, with 3
Euler implicit method for the flow equations.
FGMRES is used for solving the linear system.
Using a ILU(Max number of linear iterations: 5.
V Multigrid Cycle, with 3 multigrid levels.
Damping factor for the residual restriction: 0.750) preconditioning.
Convergence criteria of the linear solver: 1e-06.
Max number of linear iterations: 5.
V Multigrid Cycle, with 3 multigrid levels.
Damping factor for the residual restriction:  multigrid levels.
Damping factor for the residual restriction: 0.75.
Damping factor for the correction prolongation: 0.75.
No CFL adaptation.
0.75.
Damping factor for the correction prolongation: 0.75.
Damping factor for the correction prolongation: 0.75.
.
No CFL adaptation.
No CFL adaptation.

----------------- Physical Case Definition ( Zone 0 ) -------------------
Compressible Euler equations.
Mach number: 0.294
----------------- Physical Case Definition ( Zone 0 ) -------------------
Compressible Euler equations.
Mach number: .
Angle of attack (AoA): 10 deg, and angle of sideslip (AoS): 0 deg.0.294.
Angle of attack (AoA): 10 deg, and angle of sideslip (AoS): 0 deg.
No restart solution, use the values at infinity (freestream).
Dimensional simulation.
The reference area is 
No restart solution, use the values at infinity (freestream).
Dimensional simulation.
The reference area is 10 m^2.
The semi-span will be computed using the max y(3D) value.10 m^2.
The semi-span will be computed using the max y(3D) value.

The reference length is 1 m.
The reference length is 1 m.
Reference origin for moment evaluation is (0, Reference origin for moment evaluation is (0, 0, 0).0, 0).
Surface(s) where the force coefficients are evaluated: Wing_1.

Surface(s) where the objective function is evaluated: airfoil.

Surface(s) where the force coefficients are evaluated: Wing_1.

Surface(s) where the objective function is evaluated: airfoil.
Surface(s) plotted in the output file: Surface(s) plotted in the output file: Wing_1.Wing_1.
Surface(s) to be analyzed in detail: airfoil.

Surface(s) to be analyzed in detail: airfoil.
Surface(s) affected by the design variables: Wing_1.Surface(s) affected by the design variables: Wing_1.
Input mesh file name: /home/user/Documents/ICL/PDM/aeroframe_2/test/static/4_WingValidationSU2FramAT_case1/CFD/MESH/FlyingWing_baseline.su2


Input mesh file name: /home/user/Documents/ICL/PDM/aeroframe_2/test/static/4_WingValidationSU2FramAT_case1/CFD/MESH/FlyingWing_baseline.su2

--------------- Space Numerical Integration ( Zone --------------- Space Numerical Integration ( Zone 0 ) ------------------
Roe (with entropy fix = 0 ) ------------------
Roe (with entropy fix = 00) solver for the flow inviscid terms.
Roe with DDES's FD low-dissipation function.
Second order integration in space, with slope limiter.
) solver for the flow inviscid terms.
Roe with DDES's FD low-dissipation function.
Second order integration in space, with slope limiter.
Venkatakrishnan slope-limiting method, with constant: 0.05Venkatakrishnan slope-limiting method, with constant: 0.05. 
The reference element size is: . 
The reference element size is: 1. 
1. 
Gradient for upwind reconstruction: Green-Gauss.
Gradient for upwind reconstruction: Green-Gauss.
Gradient for viscous and source terms: Green-Gauss.

--------------- Time Numerical Integration  ( Zone Gradient for viscous and source terms: Green-Gauss.
0
--------------- Time Numerical Integration  ( Zone 0 ) ------------------
Local time stepping (steady state simulation).
 ) ------------------
Local time stepping (steady state simulation).
Euler implicit method for the flow equations.
FGMRES is used for solving the linear system.
Euler implicit method for the flow equations.
Using a ILU(0FGMRES is used for solving the linear system.
Using a ILU(0) preconditioning.
Convergence criteria of the linear solver: ) preconditioning.
Convergence criteria of the linear solver: 1e-06.
1e-06.
Max number of linear iterations: 5.Max number of linear iterations: 5.
V Multigrid Cycle, with 3 multigrid levels.
V Multigrid Cycle, with 3
Damping factor for the residual restriction:  multigrid levels.
Damping factor for the residual restriction: 0.75.
0.75.
Damping factor for the correction prolongation: 0.75.Damping factor for the correction prolongation: 
No CFL adaptation.0.75.
No CFL adaptation.

+----------------+--------+-------------------+---------------------------------------+------------------------------------------+
|  MG Level---------------------+
|--------------+
| Presmooth|PostSmooth|CorrectSmo|
+--------------------------------------------------------+
|-----+
||  MG Level| Presmooth  MG Level| Presmooth|PostSmooth|  MG Level| Presmooth|PostSmooth---------  MG Level| Presmooth|PostSmooth|CorrectSmo|
|PostSmooth|CorrectSmo|
+------------------|CorrectSmo|
+-----------CorrectSmo|
+------------------+---------------------------------------------------------------+
|         0-------------------------------------|         1---------------------------|         0|         0|
|         1|         2--------+
---------+
|         0|         1--------+
||         0|         1|         0|         0|         0|         0|
--+
|         0         0|         1|         0|         2|         3|         0||         0|
|         1|         2|         1|         0|         0|
||         0|         0|
|         1|         2|
|         1|         2|         0|         0|         0|         0|
         1|         2|         0|         0         0|
|         3|         3|
|         2|         0|         0|
+-----|         2|         3|         0|         0|
|         3|         3|         0|         0|
|         0|         0|
|         2|         3|         0|         0|
|
|         2|         3|         0|         0|
|         3|         3|         0|         0|
|         3|         3|         0|         0|
+-----|         3---+----|         3|-----------|         0|         0|
+-----------------------------------         3|         0|         0|
+--------------------------------------------------------------------------------------------+
Courant-Friedrichs-Lewy number:   ----------------------------------------+
Courant-Friedrichs-Lewy number:   ----------     1

------------------ Convergence Criteria  ( Zone      1

+
Courant-Friedrichs-Lewy number:        1

------------------ Convergence Criteria  ( Zone 0 ) ---------------------
Maximum number of solver subiterations: 250.
0 ) ---------------------
Maximum number of solver subiterations: 250.
Begin convergence monitoring at iteration 10.
------------------ Convergence Criteria  ( Zone 0 ) ---------------------
Maximum number of solver subiterations: 250.
Begin convergence monitoring at iteration 10------+
Courant-Friedrichs-Lewy number:        1----+
Courant-Friedrichs-Lewy number:        1

------------------ Convergence Criteria  ( Zone 0 ) ---------------------Begin convergence monitoring at iteration 10.
Residual minimum value: 1eResidual minimum value: 1e-8.
Cauchy series min. value: .
Residual minimum value: 1e-8.

------------------ Convergence Criteria  ( Zone 0 ) ---------------------
Maximum number of solver subiterations: 250.
Begin convergence monitoring at iteration 10.
Maximum number of solver subiterations: 250.
Begin convergence monitoring at iteration 10.
Residual minimum value: 1e-8.
Cauchy series min. value: 1e-10.
Number of Cauchy elements: 1001e-10.
Number of Cauchy elements: 100.
Begin windowed time average at iteration 0.
Cauchy series min. value: 1e-10.
Number of Cauchy elements: 100.
Residual minimum value: 1e-8.
.
Begin windowed time average at iteration 0

-------------------- Output Information ( Zone 0
Begin windowed time average at iteration 0..

-------------------- Output Information ( Zone 0 ) ----------------------
Writing solution files every 10 iterations.

-------------------- Output Information ( Zone 0 ) ----------------------
Writing solution files every 10 iterations.
 ) ----------------------
Writing solution files every 10 iterations.
Writing the convergence history file every 1 inner iterations.
Writing the screen convergence history every -8.
Cauchy series min. value: 1e-10.
Number of Cauchy elements: 100.
Begin windowed time average at iteration 0Cauchy series min. value: 1e-10.
Number of Cauchy elements: 100.
Begin windowed time average at iteration 0.

Writing the convergence history file every 1 inner iterations.1 inner iterations.
.


Writing the convergence history file every 1 inner iterations.-------------------- Output Information ( Zone 0 ) ----------------------

Writing the screen convergence history every 1 inner iterations.
The tabular file format is Tecplot (.dat).
Convergence history file name: history.
Forces breakdown file name: 
Writing the screen convergence history every 1 inner iterations.
The tabular file format is Tecplot (.dat).
Convergence history file name: historyThe tabular file format is Tecplot (.dat).
Convergence history file name: history.
Forces breakdown file name: forces_breakdown.dat.
-------------------- Output Information ( Zone 0 ) ----------------------
Writing solution files every 10 iterations.
Writing the convergence history file every 1Writing solution files every 10 iterations.
Writing the convergence history file every 1 inner iterations.
Writing the screen convergence history every 1 inner iterations.
Writing the screen convergence history every forces_breakdown.dat.
Surface file name: surface_flow.
Forces breakdown file name: Surface file name: surface_flow.
Volume file name:  inner iterations.
The tabular file format is Tecplot (.dat).
flow.
Restart file name: /home/user/Documents/ICL/PDM/aeroframe_2/test/static/4_WingValidationSU2FramAT_case1/CFD//Case/0/solution_flow.dat.

------------- Config File Boundary Information ( Zone 1 inner iterations.
The tabular file format is Tecplot (.dat).
Convergence history file name: history.
Forces breakdown file name: forces_breakdown.dat.
Volume file name: flow.
Restart file name: /home/user/Documents/ICL/PDM/aeroframe_2/test/static/4_WingValidationSU2FramAT_case1/CFD//Case/0/solution_flow.dat.

------------- Config File Boundary Information ( Zone 0 ) ---------------
forces_breakdown.dat.
Surface file name: surface_flow.
Volume file name: flow.Convergence history file name: history.
Forces breakdown file name: forces_breakdown.dat.
Surface file name: surface_flow.0 ) ---------------
+--------.
Surface file name: surface_flow.
Volume file name: flow.
Restart file name: /home/user/Documents/ICL/PDM/aeroframe_2/test/static/4_WingValidationSU2FramAT_case1/CFD//Case/0/solution_flow.dat+-----------
Volume file name: flow.
Restart file name: /home/user/Documents/ICL/PDM/aeroframe_2/test/static/4_WingValidationSU2FramAT_case1/CFD//Case/0/solution_flow.dat.

Restart file name: /home/user/Documents/ICL/PDM/aeroframe_2/test/static/4_WingValidationSU2FramAT_case1/CFD//Case/0/solution_flow.dat.

------------- Config File Boundary Information ( Zone 0 ) ---------------
---.

+----
------------- Config File Boundary Information ( Zone 0 ) ----------------------------------- Config File Boundary Information ( Zone 0 ) ---------------
+-------------------------------------
+-----------------------------------------------------------------------------------------------------------------------------------------------------------------------------------------------------------------+
|      ------------------------    ----+
|  -------------------------------------              Marker Type--+
       -------+
|--+
|             |             |                                                      Marker Type|                         Marker Name|     Marker Type|                  Marker Type| Marker Type|
+--                      Marker Name|-----------                         --             
+-----      Marker Name|
+-         -------------  Marker Name|
+------------------- Marker Name|----------------------------------------
+--------------------------------------------------------------------------------------------------------------------------------------------------------------------+----------
---------------------------------------------+--
----------+
-----------+
--------------------+
|                  |               |            |     |                                       Euler wall|           Euler wall|                          Euler wall|     Euler wall|                                                  Euler wall|                Wing_1                                                 Wing_1    Wing_1              Wing_1      Wing_1|
+--------------|
+------------|
+--------------|
+------------|
+---------------------------------------------------------------------------------------------------------------------------------------------------------------------------------------------------------------------+
--------------------------------------------------------|        -------------------+
|   --+
|                       ----------+---+
|                 
|                        Far-field|                                                           Far-field|    Far-field|              Farfield|
  Far-field|                                Far-field|    +----                                 -----------         -- Farfield|
           +--------             Farfield|
+---    Farfield|
+-----------------   -------- Farfield|
+-----------------------------------------------------------------------------------------------------------------------------------------------------------------------------+
|    -----------------------------------------    ---------------------------------           --------------------  ----------+
|       ------+
|   -+
|        ---------Symmetry plane|           --                  -------+
|                                   Symmetry plane|   Symmetry plane|                      Symmetry plane|                                           0|
+-                     --------           Symmetry plane|                        ----     0|
+---       0|
----------                    0+-----  ----|
+----------         ------------------------------------   ----------------------  0|
+---------------------------------------------------------------------------------------------------------------------------------------------------+
|      ------------------------------------------     Deformable mesh boundary|  ----------  -----------          --+
|     ---------------+
|  -  --+
|         ----------  Deformable mesh boundary|           Deformable mesh boundary|                       airfoil|
      Deformable mesh boundary| -----+---------                             ----------               -----         -+
|      ---------------         airfoil|
+      airfoil|
+---  airfoil|
+----------     Deformable mesh boundary|    ------    ---------        -------------------------------------------     ---------------------------------       airfoil|
+--------------------------------------------------------------------------------------+
------------------------
-------------------- Output Preprocessing ( Zone 0 ) ------------------------------------------------------------------
-------------+
+
-----------
-------------------- Output Preprocessing ( Zone 0 ) --------------------

-------------------- Output Preprocessing ( Zone 0 ) --------------------
------------------+
-----
-------------------- Output Preprocessing ( Zone 0 ) --------------------
---------------+

-------------------- Output Preprocessing ( Zone 0 ) --------------------
Screen output fields: INNER_ITER, TIME_ITER, RMS_DENSITY, RMS_MOMENTUM-X, RMS_MOMENTUM-YScreen output fields: INNER_ITER, TIME_ITER, RMS_DENSITY, RMS_MOMENTUM-X, Screen output fields: INNER_ITER, TIME_ITER, RMS_DENSITY, RMS_MOMENTUM-X, RMS_MOMENTUM-Y, RMS_ENERGY, LIFT, DRAG
Screen output fields: INNER_ITER, TIME_ITER, RMS_DENSITY, RMS_MOMENTUM-X, RMS_MOMENTUM-Y, RMS_ENERGY, LIFT, DRAG
Screen output fields: INNER_ITER, TIME_ITER, RMS_DENSITY, RMS_MOMENTUM-X, RMS_MOMENTUM-Y, RMS_ENERGY, LIFT, DRAG
, RMS_ENERGY, LIFT, DRAG
RMS_MOMENTUM-Y, RMS_ENERGY, LIFT, DRAG
  Info: Ignoring the following history output groups:
  TIME_ITER
History output group(s): ITER, RMS_RES, AERO_COEFF
  Info: Ignoring the following history output groups:
  TIME_ITER
History output group(s): ITER  Info: Ignoring the following history output groups:
  TIME_ITER
History output group(s): ITER, RMS_RES, AERO_COEFF
Convergence field(s): DRAG
Warning: No (valid) fields chosen for time convergence monitoring. Time convergence monitoring inactive.
, RMS_RES, Convergence field(s): DRAG
Warning: No (valid) fields chosen for time convergence monitoring. Time convergence monitoring inactive.
  Info: Ignoring the following history output groups:
  TIME_ITER
History output group(s): ITER, RMS_RES, AERO_COEFF
Convergence field(s): DRAG
Warning: No (valid) fields chosen for time convergence monitoring. Time convergence monitoring inactive.
  Info: Ignoring the following history output groups:
  TIME_ITER
History output group(s): ITER, RMS_RES, AERO_COEFF
Convergence field(s): DRAG
Warning: No (valid) fields chosen for time convergence monitoring. Time convergence monitoring inactive.
AERO_COEFF
Convergence field(s): DRAG
Warning: No (valid) fields chosen for time convergence monitoring. Time convergence monitoring inactive.
Volume output fields: COORDINATES, SOLUTION, PRIMITIVE
Volume output fields: COORDINATES, SOLUTION, PRIMITIVE

------------------- Geometry Preprocessing ( Zone 0 ) -------------------
Volume output fields: COORDINATES, SOLUTION, PRIMITIVE

------------------- Geometry Preprocessing ( Zone 0 ) -------------------
Volume output fields: COORDINATES, SOLUTION, PRIMITIVE

------------------- Geometry Preprocessing ( Zone 0 ) -------------------

------------------- Geometry Preprocessing ( Zone 0 ) -------------------
Volume output fields: COORDINATES, SOLUTION, PRIMITIVE

------------------- Geometry Preprocessing ( Zone 0 ) -------------------
Three dimensional problem.
22536 grid points.
124963 volume elements.
Three dimensional problem.
22536 grid points.
124963 volume elements.
Three dimensional problem.
22536 grid points.
124963 volume elements.
Three dimensional problem.
22536 grid points.
124963 volume elements.
Three dimensional problem.
22536 grid points.
124963 volume elements.
2 surface markers.
9464 boundary elements in index 0 (Marker = Wing_1).
2 surface markers.
9464 boundary elements in index 0 (Marker = Wing_1).
2 surface markers.
9464 boundary elements in index 0 (Marker = Wing_1).
2 surface markers.
9464 boundary elements in index 0 (Marker = Wing_1).
2 surface markers.
9464 boundary elements in index 0 (Marker = Wing_1).
1280 boundary elements in index 1 (Marker = Farfield).
1280 boundary elements in index 1 (Marker = Farfield).
1280 boundary elements in index 1 (Marker = Farfield).
1280 boundary elements in index 1 (Marker = Farfield).
1280 boundary elements in index 1 (Marker = Farfield).
124963 tetrahedra.
124963 tetrahedra.
124963 tetrahedra.
124963 tetrahedra.
124963 tetrahedra.
Setting point connectivity.
Setting point connectivity.
Setting point connectivity.
Setting point connectivity.
Setting point connectivity.
Renumbering points (Reverse Cuthill McKee Ordering).
Renumbering points (Reverse Cuthill McKee Ordering).
Renumbering points (Reverse Cuthill McKee Ordering).
Renumbering points (Reverse Cuthill McKee Ordering).
Renumbering points (Reverse Cuthill McKee Ordering).
Recomputing point connectivity.
Recomputing point connectivity.
Recomputing point connectivity.
Recomputing point connectivity.
Recomputing point connectivity.
Setting element connectivity.
Setting element connectivity.
Setting element connectivity.
Setting element connectivity.
Setting element connectivity.
Checking the numerical grid orientation.
Checking the numerical grid orientation.
Checking the numerical grid orientation.
Checking the numerical grid orientation.
Checking the numerical grid orientation.
All volume elements are correctly orientend.
All volume elements are correctly orientend.
All volume elements are correctly orientend.
All surface elements are correctly orientend.
Identifying edges and vertices.
All surface elements are correctly orientend.
Identifying edges and vertices.
All volume elements are correctly orientend.
All surface elements are correctly orientend.
Identifying edges and vertices.
All volume elements are correctly orientend.
All surface elements are correctly orientend.
Identifying edges and vertices.
All surface elements are correctly orientend.
Identifying edges and vertices.
Computing centers of gravity.
Computing centers of gravity.
Computing centers of gravity.
Computing centers of gravity.
Computing centers of gravity.
Setting the control volume structure.
Setting the control volume structure.
Setting the control volume structure.
Setting the control volume structure.
Setting the control volume structure.
Volume of the computational grid: 586483.
Volume of the computational grid: 586483.
Volume of the computational grid: 586483.
Volume of the computational grid: 586483.
Searching for the closest normal neighbors to the surfaces.
Volume of the computational grid: 586483.
Storing a mapping from global to local point index.
Compute the surface curvature.
Searching for the closest normal neighbors to the surfaces.
Searching for the closest normal neighbors to the surfaces.
Searching for the closest normal neighbors to the surfaces.
Storing a mapping from global to local point index.
Storing a mapping from global to local point index.
Storing a mapping from global to local point index.
Compute the surface curvature.
Compute the surface curvature.
Compute the surface curvature.
Searching for the closest normal neighbors to the surfaces.
Storing a mapping from global to local point index.
Compute the surface curvature.
Max K: 297.548. Mean K: 17.9815. Standard deviation K: 32.2218.
Max K: 297.548. Mean K: 17.9815. Standard deviation K: 32.2218.
Max K: 297.548. Mean K: 17.9815. Standard deviation K: 32.2218.
Max K: 297.548. Mean K: 17.9815. Standard deviation K: 32.2218.
Max K: 297.548. Mean K: 17.9815. Standard deviation K: 32.2218.
Checking for periodicity.
Computing mesh quality statistics for the dual control volumes.
Checking for periodicity.
Computing mesh quality statistics for the dual control volumes.
Checking for periodicity.
Computing mesh quality statistics for the dual control volumes.
Checking for periodicity.
Computing mesh quality statistics for the dual control volumes.
Checking for periodicity.
Computing mesh quality statistics for the dual control volumes.
+--------------------------------------------------------------+
|           Mesh Quality Metric|        Minimum|        Maximum|
+--------------------------------------------------------------+
|    Orthogonality Angle (deg.)|        65.9879|        81.7046|
|     CV Face Area Aspect Ratio|        1.52538|        92.5841|
|           CV Sub-Volume Ratio|        1.00352|        288.741|
+--------------------------------------------------------------+
Setting the multigrid structure.
+--------------------------------------------------------------+
|           Mesh Quality Metric|        Minimum|        Maximum|
+--------------------------------------------------------------+
|    Orthogonality Angle (deg.)|        65.9879|        81.7046|
|     CV Face Area Aspect Ratio|        1.52538|        92.5841|
|           CV Sub-Volume Ratio|        1.00352|        288.741|
+--------------------------------------------------------------+
Setting the multigrid structure.
+--------------------------------------------------------------+
|           Mesh Quality Metric|        Minimum|        Maximum|
+--------------------------------------------------------------+
|    Orthogonality Angle (deg.)|        65.9879|        81.7046|
|     CV Face Area Aspect Ratio|        1.52538|        92.5841|
|           CV Sub-Volume Ratio|        1.00352|        288.741|
+--------------------------------------------------------------+
Setting the multigrid structure.
+--------------------------------------------------------------+
|           Mesh Quality Metric|        Minimum|        Maximum|
+--------------------------------------------------------------+
|    Orthogonality Angle (deg.)|        65.9879|        81.7046|
|     CV Face Area Aspect Ratio|        1.52538|        92.5841|
|           CV Sub-Volume Ratio|        1.00352|        288.741|
+--------------------------------------------------------------+
Setting the multigrid structure.
+--------------------------------------------------------------+
|           Mesh Quality Metric|        Minimum|        Maximum|
+--------------------------------------------------------------+
|    Orthogonality Angle (deg.)|        65.9879|        81.7046|
|     CV Face Area Aspect Ratio|        1.52538|        92.5841|
|           CV Sub-Volume Ratio|        1.00352|        288.741|
+--------------------------------------------------------------+
Setting the multigrid structure.
+-------------------------------------------+
|  MG Level|       CVs|Aggl. Rate|       CFL|
+---+--------------------------------+----+--------------------------------------------------------------+
|  MG Level|       CVs|Aggl. Rate|       -------+
|----------------CFL|
+---------------+---         0|     22536|    1/1.00|--------------+
|-------------  MG Level-------------------|       --------         1|
|         1|      3780|  ----------  1/5.96---CVs|Aggl. Rate|-------------------------------------+|  0.827236|
----------+       CFL|
+---
|         0|
|------+
|  MG Level|-------------  MG Level|       CVs|     22536|    1/1.00|         1|
|         1|      3780|        CVs|Aggl. Rate|       CFL|   1/5.96|  0.827236-------Aggl. Rate|   --------    CFL|
+-------|
-----
+----------------------------+
|         0|     22536|  -------------------------  1/1.00|---------------------+
|         0|     22536|             1|
|         1|      3780|    1/5.96|  0.827236|
1/1.00|------         1|
|         1|      3780|    1/5.96|  0.827236|
--+
|         0|     22536|    1/1.00|         1|
|         1|      3780|    1/5.96|  0.827236|
|         2|       628|    1/6.02|  0.682145|
|         2|       628|    1/6.02|  0.682145|
|         2|       628|    |         2|       628|    1/6.02|  0.682145|
1/6.02|  0.682145|
|         2|       628|    1/6.02|  0.682145|
|         3|       116|    1/5.41|   0.58273|
+-------------------------|         3|       116|    1/5.41|   0.58273------------------|
+----------------+
---------------------------+
|         3|       116|    1/5.41||         3|       116   0.58273|
+-------|    1/5.41-----------------|   0.58273|
+--------------------|         3|       116|   -------------------------------+
 1/5.41|   0.58273|
------+--------------+
----------------------------------+
Finding max control volume width.
Finding max control volume width.
Finding max control volume width.
Finding max control volume width.
Finding max control volume width.
Semi-span length = 5 m.
Wetted area = 41.6472 m^2.
Area projection in the x-plane = 2.97651 m^2, y-plane = 0.416191 m^2, z-plane = 19.8441 m^2.
Max. coordinate in the x-direction = 1.02355 m, y-direction = 5 m, z-direction = Semi-span length = 5 m.
Wetted area = 41.6472 m^2.
Area projection in the x-plane = 2.97651 m^2, y-plane = 0.416191 m^2, z-plane = 19.8441 m^2.
Max. coordinate in the x-direction = 1.02355 m, y-direction = 5 m, z-direction = 0.162771 m.
Min. coordinate in the x-direction = -0.997056Semi-span length = 5 m.
Wetted area = 41.6472 m^2.
Area projection in the x-plane = 2.97651 m^2, y-plane = 0.416191 m^2, z-plane = 19.8441 m^2.
Max. coordinate in the x-direction = 1.02355 m, y-direction = 5Semi-span length = 5 m.
Wetted area = 41.6472 m^2.
Area projection in the x-plane = 2.97651 m^2, y-plane = 0.416191 m^2, z-plane = 19.8441 m^2.
Max. coordinate in the x-direction = 1.02355 m, y-direction = 5Semi-span length = 5 m.
Wetted area = 41.6472 m^2.
Area projection in the x-plane = 2.97651 m^2, y-plane = 0.416191 m^2, z-plane = 19.8441 m^2.
Max. coordinate in the x-direction =  m, z-direction = 0.162771 m.
0.162771 m.
Min. coordinate in the x-direction = -0.997056 m, y-direction =  m, y-direction = -5 m m, z-direction = 0.162771 m.
Min. coordinate in the x-direction = -0.9970561.02355 m, y-direction = 5 m, y-direction = -5 m, z-direction = -0.136184 m.
Min. coordinate in the x-direction = -0.997056 m, y-direction = -5 m, z-direction = -0.136184 m.
Checking if Euler & Symmetry markers are straight/plane:
-5 m, z-direction = -0.136184 m.
Checking if Euler & Symmetry markers are straight/plane:
Boundary marker Wing_1, z-direction = -0.136184 m.
Checking if Euler & Symmetry markers are straight/plane:
Boundary marker Wing_1 is NOT m, z-direction = 0.162771 m.
Min. coordinate in the x-direction = -0.997056 m, y-direction = -5 m, z-direction = -0.136184 m.
 a single plane.
Boundary marker 0 is a single plane.
Checking if Euler & Symmetry markers are straight/plane:
Boundary marker Wing_1 is NOT a single plane.
Boundary marker 0Boundary marker Wing_1 is NOT a single plane.
Boundary marker 0 is a single plane.
 is NOT a single plane.
Boundary marker 0 is a single plane.
Checking if Euler & Symmetry markers are straight/plane:
Computing wall distances.
 is a single plane.
Computing wall distances.
Computing wall distances.
Boundary marker Wing_1 is NOT a single plane.
Boundary marker 0 is a single plane.
Computing wall distances.
Computing wall distances.

-------------------- Solver Preprocessing ( Zone 0 ) --------------------

-------------------- Solver Preprocessing ( Zone 0 ) --------------------

-------------------- Solver Preprocessing ( Zone 0 ) --------------------

-------------------- Solver Preprocessing ( Zone 0 ) --------------------

-------------------- Solver Preprocessing ( Zone 0 ) --------------------
Inviscid flow: Computing density based on free-streamInviscid flow: Computing density based on free-streamInviscid flow: Computing density based on free-streamInviscid flow: Computing density based on free-streamInviscid flow: Computing density based on free-stream
temperature and pressure using the ideal gas law.
Force coefficients computed using free-stream values.

temperature and pressure using the ideal gas law.
Force coefficients computed using free-stream values.


temperature and pressure using the ideal gas law.
Force coefficients computed using free-stream values.



temperature and pressure using the ideal gas law.

temperature and pressure using the ideal gas law.
Force coefficients computed using free-stream values.

Force coefficients computed using free-stream values.

-- Models:
+------------------------------------------------------------------------------+
|          Viscosity Model|        Conductivity Model|              Fluid Model|
+------------------------------------------------------------------------------+
|                        -|                         -|             STANDARD_AIR|
+------------------------------------------------------------------------------+
-- Fluid properties:
+------------------------------------------------------------------------------+
|                  Name|    Dim. value|    Ref. value|      Unit|Non-dim. value|
+------------------------------------------------------------------------------+
|          Gas Constant|       287.058|             1|  N.m/kg.K|       287.058|
|      Spec. Heat Ratio|             -|             -|         -|           1.4|
+------------------------------------------------------------------------------+
-- Initial and free-stream conditions:
+------------------------------------------------------------------------------+
|                  Name|    Dim. value|    Ref. value|      Unit|Non-dim. value|
+------------------------------------------------------------------------------+
|       Static Pressure|        101325|             1|        Pa|        101325|
|               Density|       1.22498|             1|    kg/m^3|       1.22498|
|           Temperature|        288.15|             1|         K|        288.15|
|          Total Energy|        211794|             1|   m^2/s^2|        211794|
|            Velocity-X|       98.5274|             1|       m/s|       98.5274|
|            Velocity-Y|             0|             1|       m/s|             0|
|            Velocity-Z|        17.373|             1|       m/s|        17.373|
|    Velocity Magnitude|       100.047|             1|       m/s|       100.047|
+------------------------------------------------------------------------------+
|           Mach Number|             -|             -|         -|         0.294|
+------------------------------------------------------------------------------+
-- Models:
+------------------------------------------------------------------------------+
|          Viscosity Model|        Conductivity Model|              Fluid Model|
+------------------------------------------------------------------------------+
|                        -|                         -|             STANDARD_AIR|
+------------------------------------------------------------------------------+
-- Fluid properties:
+------------------------------------------------------------------------------+
|                  Name|    Dim. value|    Ref. value|      Unit|Non-dim. value|
+------------------------------------------------------------------------------+
|          Gas Constant|       287.058|             1|  N.m/kg.K|       287.058|
|      Spec. Heat Ratio|             -|             -|         -|           1.4|
+------------------------------------------------------------------------------+
-- Initial and free-stream conditions:
+------------------------------------------------------------------------------+
|                  Name|    Dim. value|    Ref. value|      Unit|Non-dim. value|
+------------------------------------------------------------------------------+
|       Static Pressure|        101325|             1|        Pa|        101325|
|               Density|       1.22498|             1|    kg/m^3|       1.22498|
|           Temperature|        288.15|             1|         K|        288.15|
|          Total Energy|        211794|             1|   m^2/s^2|        211794|
|            Velocity-X|       98.5274|             1|       m/s|       98.5274|
|            Velocity-Y|             0|             1|       m/s|             0|
|            Velocity-Z|        17.373|             1|       m/s|        17.373|
|    Velocity Magnitude|       100.047|             1|       m/s|       100.047|
+------------------------------------------------------------------------------+
|           Mach Number|             -|             -|         -|         0.294|
+------------------------------------------------------------------------------+
-- Models:
+------------------------------------------------------------------------------+
|          Viscosity Model|        Conductivity Model|              Fluid Model|
+------------------------------------------------------------------------------+
|                        -|                         -|             STANDARD_AIR|
+------------------------------------------------------------------------------+
-- Models:
+------------------------------------------------------------------------------+
|          Viscosity Model|        Conductivity Model|              Fluid Model|
+------------------------------------------------------------------------------+
|                        -|                         -|             STANDARD_AIR|
+------------------------------------------------------------------------------+
-- Fluid properties:
+------------------------------------------------------------------------------+
|                  Name|    Dim. value|    Ref. value|      Unit|Non-dim. value|
+------------------------------------------------------------------------------+
|          Gas Constant|       287.058|             1|  N.m/kg.K|       287.058|
|      Spec. Heat Ratio|             -|             -|         -|           1.4|
+------------------------------------------------------------------------------+
-- Initial and free-stream conditions:
+------------------------------------------------------------------------------+
|                  Name|    Dim. value|    Ref. value|      Unit|Non-dim. value|
+------------------------------------------------------------------------------+
|       Static Pressure|        101325|             1|        Pa|        101325|
|               Density|       1.22498|             1|    kg/m^3|       1.22498|
|           Temperature|        288.15|             1|         K|        288.15|
|          Total Energy|        211794|             1|   m^2/s^2|        211794|
|            Velocity-X|       98.5274|             1|       m/s|       98.5274|
|            Velocity-Y|             0|             1|       m/s|             0|
|            Velocity-Z|        17.373|             1|       m/s|        17.373|
|    Velocity Magnitude|       100.047|             1|       m/s|       100.047|
+------------------------------------------------------------------------------+
|           Mach Number|             -|             -|         -|         0.294|
+------------------------------------------------------------------------------+
-- Fluid properties:
+------------------------------------------------------------------------------+
|                  Name|    Dim. value|    Ref. value|      Unit|Non-dim. value|
+------------------------------------------------------------------------------+
|          Gas Constant|       287.058|             1|  N.m/kg.K|       287.058|
|      Spec. Heat Ratio|             -|             -|         -|           1.4|
+------------------------------------------------------------------------------+
-- Initial and free-stream conditions:
+------------------------------------------------------------------------------+
|                  Name|    Dim. value|    Ref. value|      Unit|Non-dim. value|
+------------------------------------------------------------------------------+
|       Static Pressure|        101325|             1|        Pa|        101325|
|               Density|       1.22498|             1|    kg/m^3|       1.22498|
|           Temperature|        288.15|             1|         K|        288.15|
|          Total Energy|        211794|             1|   m^2/s^2|        211794|
|            Velocity-X|       98.5274|             1|       m/s|       98.5274|
|            Velocity-Y|             0|             1|       m/s|             0|
|            Velocity-Z|        17.373|             1|       m/s|        17.373|
|    Velocity Magnitude|       100.047|             1|       m/s|       100.047|
+------------------------------------------------------------------------------+
|           Mach Number|             -|             -|         -|         0.294|
+------------------------------------------------------------------------------+
-- Models:
+------------------------------------------------------------------------------+
|          Viscosity Model|        Conductivity Model|              Fluid Model|
+------------------------------------------------------------------------------+
|                        -|                         -|             STANDARD_AIR|
+------------------------------------------------------------------------------+
-- Fluid properties:
+------------------------------------------------------------------------------+
|                  Name|    Dim. value|    Ref. value|      Unit|Non-dim. value|
+------------------------------------------------------------------------------+
|          Gas Constant|       287.058|             1|  N.m/kg.K|       287.058|
|      Spec. Heat Ratio|             -|             -|         -|           1.4|
+------------------------------------------------------------------------------+
-- Initial and free-stream conditions:
+------------------------------------------------------------------------------+
|                  Name|    Dim. value|    Ref. value|      Unit|Non-dim. value|
+------------------------------------------------------------------------------+
|       Static Pressure|        101325|             1|        Pa|        101325|
|               Density|       1.22498|             1|    kg/m^3|       1.22498|
|           Temperature|        288.15|             1|         K|        288.15|
|          Total Energy|        211794|             1|   m^2/s^2|        211794|
|            Velocity-X|       98.5274|             1|       m/s|       98.5274|
|            Velocity-Y|             0|             1|       m/s|             0|
|            Velocity-Z|        17.373|             1|       m/s|        17.373|
|    Velocity Magnitude|       100.047|             1|       m/s|       100.047|
+------------------------------------------------------------------------------+
|           Mach Number|             -|             -|         -|         0.294|
+------------------------------------------------------------------------------+
Initialize Jacobian structure (Euler). MG level: 0.
Initialize Jacobian structure (Euler). MG level: 0.
Initialize Jacobian structure (Euler). MG level: 0.
Initialize Jacobian structure (Euler). MG level: 0.
Initialize Jacobian structure (Euler). MG level: 0.
Initialize Jacobian structure (Euler). MG level: 1.
Initialize Jacobian structure (Euler). MG level: 1.
Initialize Jacobian structure (Euler). MG level: 1.
Initialize Jacobian structure (Euler). MG level: 1.
Initialize Jacobian structure (Euler). MG level: 1.
Initialize Jacobian structure (Euler). MG level: 2.
Initialize Jacobian structure (Euler). MG level: 2.
Initialize Jacobian structure (Euler). MG level: 2.
Initialize Jacobian structure (Euler). MG level: 2.
Initialize Jacobian structure (Euler). MG level: 2.
Initialize Jacobian structure (Euler). MG level: 3.
Initialize Jacobian structure (Euler). MG level: 3.

------------------- Numerics Preprocessing ( Zone 0 ) -------------------

------------------- Numerics Preprocessing ( Zone 0 ) -------------------
Initialize Jacobian structure (Euler). MG level: 3.
Initialize Jacobian structure (Euler). MG level: 3.
Initialize Jacobian structure (Euler). MG level: 3.

------------------- Numerics Preprocessing ( Zone 0 ) -------------------

------------------- Numerics Preprocessing ( Zone 0 ) -------------------

------------------- Numerics Preprocessing ( Zone 0 ) -------------------

----------------- Integration Preprocessing ( Zone 0 ) ------------------

------------------- Iteration Preprocessing ( Zone 0 ) ------------------
Euler/Navier-Stokes/RANS fluid iteration.

----------------- Integration Preprocessing ( Zone 0 ) ------------------

------------------- Iteration Preprocessing ( Zone 0 ) ------------------
Euler/Navier-Stokes/RANS fluid iteration.

----------------- Integration Preprocessing ( Zone 0 ) ------------------

------------------- Iteration Preprocessing ( Zone 0 ) ------------------
Euler/Navier-Stokes/RANS fluid iteration.

----------------- Integration Preprocessing ( Zone 0 ) ------------------

------------------- Iteration Preprocessing ( Zone 0 ) ------------------
Euler/Navier-Stokes/RANS fluid iteration.

----------------- Integration Preprocessing ( Zone 0 ) ------------------

------------------- Iteration Preprocessing ( Zone 0 ) ------------------
Euler/Navier-Stokes/RANS fluid iteration.

------------------------------ Begin Solver -----------------------------

Simulation Run using the Single-zone Driver

------------------------------ Begin Solver -----------------------------

Simulation Run using the Single-zone Driver

------------------------------ Begin Solver -----------------------------

Simulation Run using the Single-zone Driver

------------------------------ Begin Solver -----------------------------

Simulation Run using the Single-zone Driver

------------------------------ Begin Solver -----------------------------

Simulation Run using the Single-zone Driver
+-------------------------------------------------------------------------------------------------------+
|  Inner_Iter|   Time_Iter|    rms[Rho]|   rms[RhoU]|   rms[RhoV]|   rms[RhoE]|          CL|          CD|
+-------------------------------------------------------------------------------------------------------+
|           0|           0|   -0.859619|    1.283784|   -0.077555|    4.609481|    1.596443|    0.711969|
+-------------------------------------------------------------------------------------------------------+
|  Inner_Iter|   Time_Iter|    rms[Rho]|   rms[RhoU]|   rms[RhoV]|   rms[RhoE]|          CL|          CD|
+-------------------------------------------------------------------------------------------------------+
|           0|           0|   -0.859619|    1.283784|   -0.077555|    4.609481|    1.596443|    0.711969|
+-------------------------------------------------------------------------------------------------------+
|  Inner_Iter|   Time_Iter|    rms[Rho]|   rms[RhoU]|   rms[RhoV]|   rms[RhoE]|          CL|          CD|
+-------------------------------------------------------------------------------------------------------+
|           0|           0|   -0.859619|    1.283784|   -0.077555|    4.609481|    1.596443|    0.711969|
+-------------------------------------------------------------------------------------------------------+
|  Inner_Iter|   Time_Iter|    rms[Rho]|   rms[RhoU]|   rms[RhoV]|   rms[RhoE]|          CL|          CD|
+-------------------------------------------------------------------------------------------------------+
|           0|           0|   -0.859619|    1.283784|   -0.077555|    4.609481|    1.596443|    0.711969|
+-------------------------------------------------------------------------------------------------------+
|  Inner_Iter|   Time_Iter|    rms[Rho]|   rms[RhoU]|   rms[RhoV]|   rms[RhoE]|          CL|          CD|
+-------------------------------------------------------------------------------------------------------+
|           0|           0|   -0.859619|    1.283784|   -0.077555|    4.609481|    1.596443|    0.711969|
|           1|           0|   -0.945232|    1.261849|    0.749609|    4.525332|    2.767086|    1.220592|
|           1|           0|   -0.945232|    1.261849|    0.749609|    4.525332|    2.767086|    1.220592|
|           1|           0|   -0.945232|    1.261849|    0.749609|    4.525332|    2.767086|    1.220592|
|           1|           0|   -0.945232|    1.261849|    0.749609|    4.525332|    2.767086|    1.220592|
|           1|           0|   -0.945232|    1.261849|    0.749609|    4.525332|    2.767086|    1.220592|
|           2|           0|   -0.931611|    1.370576|    0.980739|    4.542886|    3.562576|    1.550240|
|           2|           0|   -0.931611|    1.370576|    0.980739|    4.542886|    3.562576|    1.550240|
|           2|           0|   -0.931611|    1.370576|    0.980739|    4.542886|    3.562576|    1.550240|
|           2|           0|   -0.931611|    1.370576|    0.980739|    4.542886|    3.562576|    1.550240|
|           2|           0|   -0.931611|    1.370576|    0.980739|    4.542886|    3.562576|    1.550240|
|           3|           0|   -0.888511|    1.478911|    1.110033|    4.588297|    4.044164|    1.730215|
|           3|           0|   -0.888511|    1.478911|    1.110033|    4.588297|    4.044164|    1.730215|
|           3|           0|   -0.888511|    1.478911|    1.110033|    4.588297|    4.044164|    1.730215|
|           3|           0|   -0.888511|    1.478911|    1.110033|    4.588297|    4.044164|    1.730215|
|           3|           0|   -0.888511|    1.478911|    1.110033|    4.588297|    4.044164|    1.730215|
|           4|           0|   -0.850681|    1.568632|    1.211509|    4.627495|    4.271454|    1.789617|
|           4|           0|   -0.850681|    1.568632|    1.211509|    4.627495|    4.271454|    1.789617|
|           4|           0|   -0.850681|    1.568632|    1.211509|    4.627495|    4.271454|    1.789617|
|           4|           0|   -0.850681|    1.568632|    1.211509|    4.627495|    4.271454|    1.789617|
|           4|           0|   -0.850681|    1.568632|    1.211509|    4.627495|    4.271454|    1.789617|
|           5|           0|   -0.824529|    1.643168|    1.304623|    4.654769|    4.299976|    1.756147|
|           5|           0|   -0.824529|    1.643168|    1.304623|    4.654769|    4.299976|    1.756147|
|           5|           0|   -0.824529|    1.643168|    1.304623|    4.654769|    4.299976|    1.756147|
|           5|           0|   -0.824529|    1.643168|    1.304623|    4.654769|    4.299976|    1.756147|
|           5|           0|   -0.824529|    1.643168|    1.304623|    4.654769|    4.299976|    1.756147|
|           6|           0|   -0.808573|    1.706141|    1.392955|    4.671744|    4.180450|    1.655030|
|           6|           0|   -0.808573|    1.706141|    1.392955|    4.671744|    4.180450|    1.655030|
|           6|           0|   -0.808573|    1.706141|    1.392955|    4.671744|    4.180450|    1.655030|
|           6|           0|   -0.808573|    1.706141|    1.392955|    4.671744|    4.180450|    1.655030|
|           6|           0|   -0.808573|    1.706141|    1.392955|    4.671744|    4.180450|    1.655030|
|           7|           0|   -0.801006|    1.759161|    1.475155|    4.680001|    3.956637|    1.507932|
|           7|           0|   -0.801006|    1.759161|    1.475155|    4.680001|    3.956637|    1.507932|
|           7|           0|   -0.801006|    1.759161|    1.475155|    4.680001|    3.956637|    1.507932|
|           7|           0|   -0.801006|    1.759161|    1.475155|    4.680001|    3.956637|    1.507932|
|           7|           0|   -0.801006|    1.759161|    1.475155|    4.680001|    3.956637|    1.507932|
|           8|           0|   -0.799977|    1.803106|    1.549323|    4.681054|    3.664790|    1.332776|
|           8|           0|   -0.799977|    1.803106|    1.549323|    4.681054|    3.664790|    1.332776|
|           8|           0|   -0.799977|    1.803106|    1.549323|    4.681054|    3.664790|    1.332776|
|           8|           0|   -0.799977|    1.803106|    1.549323|    4.681054|    3.664790|    1.332776|
|           8|           0|   -0.799977|    1.803106|    1.549323|    4.681054|    3.664790|    1.332776|
|           9|           0|   -0.804614|    1.838545|    1.614636|    4.675409|    3.335171|    1.144524|
|           9|           0|   -0.804614|    1.838545|    1.614636|    4.675409|    3.335171|    1.144524|
|           9|           0|   -0.804614|    1.838545|    1.614636|    4.675409|    3.335171|    1.144524|
|           9|           0|   -0.804614|    1.838545|    1.614636|    4.675409|    3.335171|    1.144524|
|           9|           0|   -0.804614|    1.838545|    1.614636|    4.675409|    3.335171|    1.144524|
|          10|           0|   -0.813437|    1.865806|    1.670615|    4.664090|    2.991401|    0.954945|
+-----------------------------------------------------------------------+
|        File Writing Summary       |              Filename             |
+-----------------------------------------------------------------------+
|SU2 restart                        |/home/user/Documents/ICL/PDM/aeroframe_2/test/static/4_WingValidationSU2FramAT_case1/CFD//Case/0/solution_flow.dat|
|          10|           0|   -0.813437|    1.865806|    1.670615|    4.664090|    2.991401|    0.954945|
|          10|           0|   -0.813437|    1.865806|    1.670615|    4.664090|    2.991401|    0.954945|
+-----------------------------------------------------------------------+
|        File Writing Summary       |              Filename             |
+-----------------------------------------------------------------------+
|SU2 restart                        |/home/user/Documents/ICL/PDM/aeroframe_2/test/static/4_WingValidationSU2FramAT_case1/CFD//Case/0/solution_flow.dat|
+-----------------------------------------------------------------------+
|        File Writing Summary       |              Filename             |
+-----------------------------------------------------------------------+
|SU2 restart                        |/home/user/Documents/ICL/PDM/aeroframe_2/test/static/4_WingValidationSU2FramAT_case1/CFD//Case/0/solution_flow.dat|
|          10|           0|   -0.813437|    1.865806|    1.670615|    4.664090|    2.991401|    0.954945|
+-----------------------------------------------------------------------+
|        File Writing Summary       |              Filename             |
+-----------------------------------------------------------------------+
|SU2 restart                        |/home/user/Documents/ICL/PDM/aeroframe_2/test/static/4_WingValidationSU2FramAT_case1/CFD//Case/0/solution_flow.dat|
|Paraview                           |flow.vtu                           |
|          10|           0|   -0.813437|    1.865806|    1.670615|    4.664090|    2.991401|    0.954945|
|Paraview surface                   |surface_flow.vtu                   |
+-----------------------------------------------------------------------+

Writing the forces breakdown file (forces_breakdown.dat).
+-----------------------------------------------------------------------+
|        File Writing Summary       |              Filename             |
+-----------------------------------------------------------------------+
|SU2 restart                        |/home/user/Documents/ICL/PDM/aeroframe_2/test/static/4_WingValidationSU2FramAT_case1/CFD//Case/0/solution_flow.dat|
|Paraview                           |flow.vtu                           |
|Paraview                           |flow.vtu                           |
|Paraview surface                   |surface_flow.vtu                   |
+-----------------------------------------------------------------------+

Writing the forces breakdown file (forces_breakdown.dat).
|Paraview surface                   |surface_flow.vtu                   |
+-----------------------------------------------------------------------+

Writing the forces breakdown file (forces_breakdown.dat).
|Paraview                           |flow.vtu                           |
|Paraview surface                   |surface_flow.vtu                   |
+-----------------------------------------------------------------------+

Writing the forces breakdown file (forces_breakdown.dat).
|Paraview                           |flow.vtu                           |
|Paraview surface                   |surface_flow.vtu                   |
+-----------------------------------------------------------------------+

Writing the forces breakdown file (forces_breakdown.dat).
+-------------------------------------------------------------------------------------------------------+
|  Inner_Iter|   Time_Iter|    rms[Rho]|   rms[RhoU]|   rms[RhoV]|   rms[RhoE]|          CL|          CD|
+-------------------------------------------------------------------------------------------------------+
|          11|           0|   -0.824387|    1.885332|    1.717143|    4.648792|    2.650797|    0.772535|
+-------------------------------------------------------------------------------------------------------+
|  Inner_Iter|   Time_Iter|    rms[Rho]|   rms[RhoU]|   rms[RhoV]|   rms[RhoE]|          CL|          CD|
+-------------------------------------------------------------------------------------------------------+
|          11|           0|   -0.824387|    1.885332|    1.717143|    4.648792|    2.650797|    0.772535|
+-------------------------------------------------------------------------------------------------------+
|  Inner_Iter|   Time_Iter|    rms[Rho]|   rms[RhoU]|   rms[RhoV]|   rms[RhoE]|          CL|          CD|
+-------------------------------------------------------------------------------------------------------+
|          11|           0|   -0.824387|    1.885332|    1.717143|    4.648792|    2.650797|    0.772535|
+-------------------------------------------------------------------------------------------------------+
|  Inner_Iter|   Time_Iter|    rms[Rho]|   rms[RhoU]|   rms[RhoV]|   rms[RhoE]|          CL|          CD|
+-------------------------------------------------------------------------------------------------------+
|          11|           0|   -0.824387|    1.885332|    1.717143|    4.648792|    2.650797|    0.772535|
+-------------------------------------------------------------------------------------------------------+
|  Inner_Iter|   Time_Iter|    rms[Rho]|   rms[RhoU]|   rms[RhoV]|   rms[RhoE]|          CL|          CD|
+-------------------------------------------------------------------------------------------------------+
|          11|           0|   -0.824387|    1.885332|    1.717143|    4.648792|    2.650797|    0.772535|
|          12|           0|   -0.834570|    1.897276|    1.754415|    4.632230|    2.325531|    0.603031|
|          12|           0|   -0.834570|    1.897276|    1.754415|    4.632230|    2.325531|    0.603031|
|          12|           0|   -0.834570|    1.897276|    1.754415|    4.632230|    2.325531|    0.603031|
|          12|           0|   -0.834570|    1.897276|    1.754415|    4.632230|    2.325531|    0.603031|
|          12|           0|   -0.834570|    1.897276|    1.754415|    4.632230|    2.325531|    0.603031|
|          13|           0|   -0.839878|    1.902095|    1.782518|    4.619156|    2.023356|    0.449955|
|          13|           0|   -0.839878|    1.902095|    1.782518|    4.619156|    2.023356|    0.449955|
|          13|           0|   -0.839878|    1.902095|    1.782518|    4.619156|    2.023356|    0.449955|
|          13|           0|   -0.839878|    1.902095|    1.782518|    4.619156|    2.023356|    0.449955|
|          13|           0|   -0.839878|    1.902095|    1.782518|    4.619156|    2.023356|    0.449955|
|          14|           0|   -0.836595|    1.900086|    1.801644|    4.615006|    1.748768|    0.315094|
|          14|           0|   -0.836595|    1.900086|    1.801644|    4.615006|    1.748768|    0.315094|
|          14|           0|   -0.836595|    1.900086|    1.801644|    4.615006|    1.748768|    0.315094|
|          14|           0|   -0.836595|    1.900086|    1.801644|    4.615006|    1.748768|    0.315094|
|          14|           0|   -0.836595|    1.900086|    1.801644|    4.615006|    1.748768|    0.315094|
|          15|           0|   -0.823595|    1.891689|    1.811984|    4.622886|    1.503585|    0.198832|
|          15|           0|   -0.823595|    1.891689|    1.811984|    4.622886|    1.503585|    0.198832|
|          15|           0|   -0.823595|    1.891689|    1.811984|    4.622886|    1.503585|    0.198832|
|          15|           0|   -0.823595|    1.891689|    1.811984|    4.622886|    1.503585|    0.198832|
|          15|           0|   -0.823595|    1.891689|    1.811984|    4.622886|    1.503585|    0.198832|
|          16|           0|   -0.802984|    1.877436|    1.813885|    4.641802|    1.287775|    0.100608|
|          16|           0|   -0.802984|    1.877436|    1.813885|    4.641802|    1.287775|    0.100608|
|          16|           0|   -0.802984|    1.877436|    1.813885|    4.641802|    1.287775|    0.100608|
|          16|           0|   -0.802984|    1.877436|    1.813885|    4.641802|    1.287775|    0.100608|
|          16|           0|   -0.802984|    1.877436|    1.813885|    4.641802|    1.287775|    0.100608|
|          17|           0|   -0.778813|    1.858339|    1.807663|    4.667449|    1.100081|    0.019292|
|          17|           0|   -0.778813|    1.858339|    1.807663|    4.667449|    1.100081|    0.019292|
|          17|           0|   -0.778813|    1.858339|    1.807663|    4.667449|    1.100081|    0.019292|
|          17|           0|   -0.778813|    1.858339|    1.807663|    4.667449|    1.100081|    0.019292|
|          17|           0|   -0.778813|    1.858339|    1.807663|    4.667449|    1.100081|    0.019292|
|          18|           0|   -0.755386|    1.835614|    1.793921|    4.694348|    0.938771|   -0.046546|
|          18|           0|   -0.755386|    1.835614|    1.793921|    4.694348|    0.938771|   -0.046546|
|          18|           0|   -0.755386|    1.835614|    1.793921|    4.694348|    0.938771|   -0.046546|
|          18|           0|   -0.755386|    1.835614|    1.793921|    4.694348|    0.938771|   -0.046546|
|          18|           0|   -0.755386|    1.835614|    1.793921|    4.694348|    0.938771|   -0.046546|
|          19|           0|   -0.736417|    1.810566|    1.773600|    4.717650|    0.801931|   -0.098445|
|          19|           0|   -0.736417|    1.810566|    1.773600|    4.717650|    0.801931|   -0.098445|
|          19|           0|   -0.736417|    1.810566|    1.773600|    4.717650|    0.801931|   -0.098445|
|          19|           0|   -0.736417|    1.810566|    1.773600|    4.717650|    0.801931|   -0.098445|
|          19|           0|   -0.736417|    1.810566|    1.773600|    4.717650|    0.801931|   -0.098445|
|          20|           0|   -0.724022|    1.784820|    1.747875|    4.734341|    0.687626|   -0.137926|
|          20|           0|   -0.724022|    1.784820|    1.747875|    4.734341|    0.687626|   -0.137926|
|          20|           0|   -0.724022|    1.784820|    1.747875|    4.734341|    0.687626|   -0.137926|
+-----------------------------------------------------------------------+
|        File Writing Summary       |              Filename             |
+-----------------------------------------------------------------------+
|SU2 restart                        |/home/user/Documents/ICL/PDM/aeroframe_2/test/static/4_WingValidationSU2FramAT_case1/CFD//Case/0/solution_flow.dat|
|          20|           0|   -0.724022|    1.784820|    1.747875|    4.734341|    0.687626|   -0.137926|
+-----------------------------------------------------------------------+
|        File Writing Summary       |              Filename             |
+-----------------------------------------------------------------------+
|SU2 restart                        |/home/user/Documents/ICL/PDM/aeroframe_2/test/static/4_WingValidationSU2FramAT_case1/CFD//Case/0/solution_flow.dat|
|          20|           0|   -0.724022|    1.784820|    1.747875|    4.734341|    0.687626|   -0.137926|
+-----------------------------------------------------------------------+
|        File Writing Summary       |              Filename             |
+-----------------------------------------------------------------------+
|SU2 restart                        |/home/user/Documents/ICL/PDM/aeroframe_2/test/static/4_WingValidationSU2FramAT_case1/CFD//Case/0/solution_flow.dat|
+-----------------------------------------------------------------------+
|        File Writing Summary       |              Filename             |
+-----------------------------------------------------------------------+
|SU2 restart                        |/home/user/Documents/ICL/PDM/aeroframe_2/test/static/4_WingValidationSU2FramAT_case1/CFD//Case/0/solution_flow.dat|
+-----------------------------------------------------------------------+
|        File Writing Summary       |              Filename             |
+-----------------------------------------------------------------------+
|SU2 restart                        |/home/user/Documents/ICL/PDM/aeroframe_2/test/static/4_WingValidationSU2FramAT_case1/CFD//Case/0/solution_flow.dat|
|Paraview                           |flow.vtu                           |
|Paraview                           |flow.vtu                           |
|Paraview                           |flow.vtu                           |
|Paraview surface                   |surface_flow.vtu                   |
+-----------------------------------------------------------------------+

Writing the forces breakdown file (forces_breakdown.dat).
|Paraview                           |flow.vtu                           |
|Paraview surface                   |surface_flow.vtu                   |
+-----------------------------------------------------------------------+

Writing the forces breakdown file (forces_breakdown.dat).
|Paraview surface                   |surface_flow.vtu                   |
|Paraview                           |flow.vtu                           |
+-----------------------------------------------------------------------+

Writing the forces breakdown file (forces_breakdown.dat).
|Paraview surface                   |surface_flow.vtu                   |
+-----------------------------------------------------------------------+

Writing the forces breakdown file (forces_breakdown.dat).
|Paraview surface                   |surface_flow.vtu                   |
+-----------------------------------------------------------------------+

Writing the forces breakdown file (forces_breakdown.dat).
[...]
|         233|           0|   -2.686115|    0.031745|    0.047754|    2.743949|    1.705556|    0.145978|
|         234|           0|   -2.696286|    0.018355|    0.038078|    2.738378|    1.705890|    0.146060|
|         234|           0|   -2.696286|    0.018355|    0.038078|    2.738378|    1.705890|    0.146060|
|         234|           0|   -2.696286|    0.018355|    0.038078|    2.738378|    1.705890|    0.146060|
|         234|           0|   -2.696286|    0.018355|    0.038078|    2.738378|    1.705890|    0.146060|
|         234|           0|   -2.696286|    0.018355|    0.038078|    2.738378|    1.705890|    0.146060|
|         235|           0|   -2.706909|    0.004776|    0.029135|    2.732294|    1.706286|    0.146140|
|         235|           0|   -2.706909|    0.004776|    0.029135|    2.732294|    1.706286|    0.146140|
|         235|           0|   -2.706909|    0.004776|    0.029135|    2.732294|    1.706286|    0.146140|
|         235|           0|   -2.706909|    0.004776|    0.029135|    2.732294|    1.706286|    0.146140|
|         235|           0|   -2.706909|    0.004776|    0.029135|    2.732294|    1.706286|    0.146140|
|         236|           0|   -2.717700|   -0.008699|    0.021112|    2.725768|    1.706699|    0.146205|
|         236|           0|   -2.717700|   -0.008699|    0.021112|    2.725768|    1.706699|    0.146205|
|         236|           0|   -2.717700|   -0.008699|    0.021112|    2.725768|    1.706699|    0.146205|
|         236|           0|   -2.717700|   -0.008699|    0.021112|    2.725768|    1.706699|    0.146205|
|         236|           0|   -2.717700|   -0.008699|    0.021112|    2.725768|    1.706699|    0.146205|
|         237|           0|   -2.728649|   -0.021883|    0.014114|    2.718494|    1.707162|    0.146266|
|         237|           0|   -2.728649|   -0.021883|    0.014114|    2.718494|    1.707162|    0.146266|
|         237|           0|   -2.728649|   -0.021883|    0.014114|    2.718494|    1.707162|    0.146266|
|         237|           0|   -2.728649|   -0.021883|    0.014114|    2.718494|    1.707162|    0.146266|
|         237|           0|   -2.728649|   -0.021883|    0.014114|    2.718494|    1.707162|    0.146266|
|         238|           0|   -2.739965|   -0.034502|    0.008190|    2.710066|    1.707620|    0.146307|
|         238|           0|   -2.739965|   -0.034502|    0.008190|    2.710066|    1.707620|    0.146307|
|         238|           0|   -2.739965|   -0.034502|    0.008190|    2.710066|    1.707620|    0.146307|
|         238|           0|   -2.739965|   -0.034502|    0.008190|    2.710066|    1.707620|    0.146307|
|         238|           0|   -2.739965|   -0.034502|    0.008190|    2.710066|    1.707620|    0.146307|
|         239|           0|   -2.751415|   -0.046371|    0.003297|    2.700532|    1.708116|    0.146343|
|         239|           0|   -2.751415|   -0.046371|    0.003297|    2.700532|    1.708116|    0.146343|
|         239|           0|   -2.751415|   -0.046371|    0.003297|    2.700532|    1.708116|    0.146343|
|         239|           0|   -2.751415|   -0.046371|    0.003297|    2.700532|    1.708116|    0.146343|
|         239|           0|   -2.751415|   -0.046371|    0.003297|    2.700532|    1.708116|    0.146343|
|         240|           0|   -2.762654|   -0.057172|   -0.000700|    2.690200|    1.708617|    0.146367|
+-----------------------------------------------------------------------+
|        File Writing Summary       |              Filename             |
+-----------------------------------------------------------------------+
|SU2 restart                        |/home/user/Documents/ICL/PDM/aeroframe_2/test/static/4_WingValidationSU2FramAT_case1/CFD//Case/0/solution_flow.dat|
|         240|           0|   -2.762654|   -0.057172|   -0.000700|    2.690200|    1.708617|    0.146367|
|         240|           0|   -2.762654|   -0.057172|   -0.000700|    2.690200|    1.708617|    0.146367|
+-----------------------------------------------------------------------+
|        File Writing Summary       |              Filename             |
+-----------------------------------------------------------------------+
|SU2 restart                        |/home/user/Documents/ICL/PDM/aeroframe_2/test/static/4_WingValidationSU2FramAT_case1/CFD//Case/0/solution_flow.dat|
|Paraview                           |flow.vtu                           |
+-----------------------------------------------------------------------+
|        File Writing Summary       |              Filename             |
+----------------------------------|         240|------           0|   -2.762654|   -0.057172|   -0.000700|    2.690200|------------    1.708617|    0.146367|
-------------------+
|SU2 restart                        |/home/user/Documents/ICL/PDM/aeroframe_2/test/static/4_WingValidationSU2FramAT_case1/CFD//Case/0/solution_flow.dat|
|Paraview surface                   |surface_flow.vtu                   |
+-----------------------------------------------------------------------+

Writing the forces breakdown file (forces_breakdown.dat).
+-----------------------------------------------------------------------+
|        File Writing Summary       |              Filename             |
+-----------------------------------------------------------------------+
|SU2 restart                        |/home/user/Documents/ICL/PDM/aeroframe_2/test/static/4_WingValidationSU2FramAT_case1/CFD//Case/0/solution_flow.dat|
|         240|           0|   -2.762654|   -0.057172|   -0.000700|    2.690200|    1.708617|    0.146367|
+-----------------------------------------------------------------------+
|        File Writing Summary       |              Filename             |
+-----------------------------------------------------------------------+
|SU2 restart                        |/home/user/Documents/ICL/PDM/aeroframe_2/test/static/4_WingValidationSU2FramAT_case1/CFD//Case/0/solution_flow.dat|
|Paraview                           |flow.vtu                           |
|Paraview                           |flow.vtu                           |
|Paraview surface                   |surface_flow.vtu                   |
+-----------------------------------------------------------------------+

Writing the forces breakdown file (forces_breakdown.dat).
|Paraview surface                   |surface_flow.vtu                   |
|Paraview                           |flow.vtu                           |
+-----------------------------------------------------------------------+

Writing the forces breakdown file (forces_breakdown.dat).
|Paraview surface                   |surface_flow.vtu                   |
+-----------------------------------------------------------------------+

Writing the forces breakdown file (forces_breakdown.dat).
|Paraview                           |flow.vtu                           |
|Paraview surface                   |surface_flow.vtu                   |
+-----------------------------------------------------------------------+

Writing the forces breakdown file (forces_breakdown.dat).
+-------------------------------------------------------------------------------------------------------+
|  Inner_Iter|   Time_Iter|    rms[Rho]|   rms[RhoU]|   rms[RhoV]|   rms[RhoE]|          CL|          CD|
+-------------------------------------------------------------------------------------------------------+
|         241|           0|   -2.773571|   -0.066823|   -0.003955|    2.679099|    1.709132|    0.146382|
+-------------------------------------------------------------------------------------------------------+
|  Inner_Iter|   Time_Iter|    rms[Rho]|   rms[RhoU]|   rms[RhoV]|   rms[RhoE]|          CL|          CD|
+-------------------------------------------------------------------------------------------------------+
|         241|           0|   -2.773571|   -0.066823|   -0.003955|    2.679099|    1.709132|    0.146382|
+-------------------------------------------------------------------------------------------------------+
|  Inner_Iter|   Time_Iter|    rms[Rho]|   rms[RhoU]|   rms[RhoV]|   rms[RhoE]|          CL|          CD|
+-------------------------------------------------------------------------------------------------------+
|         241|           0|   -2.773571|   -0.066823|   -0.003955|    2.679099|    1.709132|    0.146382|
+-------------------------------------------------------------------------------------------------------+
|  Inner_Iter|   Time_Iter|    rms[Rho]|   rms[RhoU]|   rms[RhoV]|   rms[RhoE]|          CL|          CD|
+-------------------------------------------------------------------------------------------------------+
|         241|           0|   -2.773571|   -0.066823|   -0.003955|    2.679099|    1.709132|    0.146382|
+-------------------------------------------------------------------------------------------------------+
|  Inner_Iter|   Time_Iter|    rms[Rho]|   rms[RhoU]|   rms[RhoV]|   rms[RhoE]|          CL|          CD|
+-------------------------------------------------------------------------------------------------------+
|         241|           0|   -2.773571|   -0.066823|   -0.003955|    2.679099|    1.709132|    0.146382|
|         242|           0|   -2.784151|   -0.075205|   -0.006714|    2.667360|    1.709626|    0.146380|
|         242|           0|   -2.784151|   -0.075205|   -0.006714|    2.667360|    1.709626|    0.146380|
|         242|           0|   -2.784151|   -0.075205|   -0.006714|    2.667360|    1.709626|    0.146380|
|         242|           0|   -2.784151|   -0.075205|   -0.006714|    2.667360|    1.709626|    0.146380|
|         242|           0|   -2.784151|   -0.075205|   -0.006714|    2.667360|    1.709626|    0.146380|
|         243|           0|   -2.794638|   -0.082323|   -0.009243|    2.654813|    1.710099|    0.146364|
|         243|           0|   -2.794638|   -0.082323|   -0.009243|    2.654813|    1.710099|    0.146364|
|         243|           0|   -2.794638|   -0.082323|   -0.009243|    2.654813|    1.710099|    0.146364|
|         243|           0|   -2.794638|   -0.082323|   -0.009243|    2.654813|    1.710099|    0.146364|
|         243|           0|   -2.794638|   -0.082323|   -0.009243|    2.654813|    1.710099|    0.146364|
|         244|           0|   -2.804782|   -0.088256|   -0.011784|    2.641790|    1.710549|    0.146335|
|         244|           0|   -2.804782|   -0.088256|   -0.011784|    2.641790|    1.710549|    0.146335|
|         244|           0|   -2.804782|   -0.088256|   -0.011784|    2.641790|    1.710549|    0.146335|
|         244|           0|   -2.804782|   -0.088256|   -0.011784|    2.641790|    1.710549|    0.146335|
|         244|           0|   -2.804782|   -0.088256|   -0.011784|    2.641790|    1.710549|    0.146335|
|         245|           0|   -2.814014|   -0.093081|   -0.014591|    2.629242|    1.710992|    0.146301|
|         245|           0|   -2.814014|   -0.093081|   -0.014591|    2.629242|    1.710992|    0.146301|
|         245|           0|   -2.814014|   -0.093081|   -0.014591|    2.629242|    1.710992|    0.146301|
|         245|           0|   -2.814014|   -0.093081|   -0.014591|    2.629242|    1.710992|    0.146301|
|         245|           0|   -2.814014|   -0.093081|   -0.014591|    2.629242|    1.710992|    0.146301|
|         246|           0|   -2.822888|   -0.096965|   -0.017870|    2.617000|    1.711385|    0.146252|
|         246|           0|   -2.822888|   -0.096965|   -0.017870|    2.617000|    1.711385|    0.146252|
|         246|           0|   -2.822888|   -0.096965|   -0.017870|    2.617000|    1.711385|    0.146252|
|         246|           0|   -2.822888|   -0.096965|   -0.017870|    2.617000|    1.711385|    0.146252|
|         246|           0|   -2.822888|   -0.096965|   -0.017870|    2.617000|    1.711385|    0.146252|
|         247|           0|   -2.832393|   -0.100296|   -0.021801|    2.604030|    1.711768|    0.146203|
|         247|           0|   -2.832393|   -0.100296|   -0.021801|    2.604030|    1.711768|    0.146203|
|         247|           0|   -2.832393|   -0.100296|   -0.021801|    2.604030|    1.711768|    0.146203|
|         247|           0|   -2.832393|   -0.100296|   -0.021801|    2.604030|    1.711768|    0.146203|
|         247|           0|   -2.832393|   -0.100296|   -0.021801|    2.604030|    1.711768|    0.146203|
|         248|           0|   -2.840663|   -0.103157|   -0.026496|    2.592898|    1.712112|    0.146146|
|         248|           0|   -2.840663|   -0.103157|   -0.026496|    2.592898|    1.712112|    0.146146|
|         248|           0|   -2.840663|   -0.103157|   -0.026496|    2.592898|    1.712112|    0.146146|
|         248|           0|   -2.840663|   -0.103157|   -0.026496|    2.592898|    1.712112|    0.146146|
|         248|           0|   -2.840663|   -0.103157|   -0.026496|    2.592898|    1.712112|    0.146146|
|         249|           0|   -2.848418|   -0.105795|   -0.032063|    2.583130|    1.712411|    0.146082|

----------------------------- Solver Exit -------------------------------

Maximum number of iterations reached (ITER = 250) before convergence.
+-----------------------------------------------------------------------+
|      Convergence Field     |     Value    |   Criterion  |  Converged |
+-----------------------------------------------------------------------+
|                  Cauchy[CD]|   0.000778053|       < 1e-10|          No|
+-----------------------------------------------------------------------+
-------------------------------------------------------------------------
+-----------------------------------------------------------------------+
|        File Writing Summary       |              Filename             |
+-----------------------------------------------------------------------+
|SU2 restart                        |/home/user/Documents/ICL/PDM/aeroframe_2/test/static/4_WingValidationSU2FramAT_case1/CFD//Case/0/solution_flow.dat|
|         249|           0|   -2.848418|   -0.105795|   -0.032063|    2.583130|    1.712411|    0.146082|

----------------------------- Solver Exit -------------------------------

Maximum number of iterations reached (ITER = 250) before convergence.
+-----------------------------------------------------------------------+
|      Convergence Field     |     Value    |   Criterion  |  Converged |
+-----------------------------------------------------------------------+
|                  Cauchy[CD]|   0.000778053|       < 1e-10|          No|
+-----------------------------------------------------------------------+
-------------------------------------------------------------------------
|         249|           0|   -2.848418|   -0.105795|   -0.032063|    2.583130|    1.712411|    0.146082|

----------------------------- Solver Exit -------------------------------

Maximum number of iterations reached (ITER = 250) before convergence.
+-----------------------------------------------------------------------+
|      Convergence Field     |     Value    |   Criterion  |  Converged |
|         249|           0|   -2.848418|   -0.105795|   -0.032063|+--------------------------------------    2.583130|    1.712411|    0.146082|

----------------------------- Solver Exit -------------------------------

-----------Maximum number of iterations reached (ITER = 250) before convergence.
+----------------------------------+
| ------------------------------                 Cauchy[CD]|   0.000778053|     -------------  < 1e-10|          No|
+------------------------+
|      Convergence Field -------------    |     Value --------------------------------------   |   Criterion  |  Converged |
+--------------------------------------------------------+
-------------------------------------------------------------------------
---------------------------+
|                  Cauchy[CD]|   0.000778053|       < 1e-10|          No|
+-----------------------------------------------------------------------+
-------------------------------------------------------------------------
+-----------------------------------------------------------------------+
|        File Writing Summary       |              Filename             |
+-----------------------------------------------------------------------+
|SU2 restart                        |/home/user/Documents/ICL/PDM/aeroframe_2/test/static/4_WingValidationSU2FramAT_case1/CFD//Case/0/solution_flow.dat|
|Paraview                           |flow.vtu                           |
+-----------------------------------------------------------------------+
|        File Writing Summary       |              Filename             |
+-------+---------------------------------------------------------------------------------------------------------------------------------------+
|+
|SU2 restart                 File Writing Summary                 |     |    /home/user/Documents/ICL/PDM/aeroframe_2/test/static/4_WingValidationSU2FramAT_case1/CFD//Case/0/solution_flow.dat|
          Filename             |
+-----------------------------------------------------------------------+
|SU2 restart                        |/home/user/Documents/ICL/PDM/aeroframe_2/test/static/4_WingValidationSU2FramAT_case1/CFD//Case/0/solution_flow.dat|


Error in "bool CFileWriter::OpenMPIFile()": 
-------------------------------------------------------------------------
Unable to open file /home/user/Documents/ICL/PDM/aeroframe_2/test/static/4_WingValidationSU2FramAT_case1/CFD//Case/0/solution_flow.dat
------------------------------ Error Exit -------------------------------


|Paraview surface                   |surface_flow.vtu                   |
+-----------------------------------------------------------------------+

Writing the forces breakdown file (forces_breakdown.dat).

------------------------- Solver Postprocessing -------------------------
Deleted CNumerics container.
Deleted CIntegration container.
Deleted CSolver container.
Deleted CIteration container.
Deleted CInterpolator container.
Deleted CInterface container.
|         249|           0|   -2.848418|   -0.105795|   -0.032063|    2.583130|    1.712411|    0.146082|

----------------------------- Solver Exit -------------------------------

Maximum number of iterations reached (ITER = 250) before convergence.
+-----------------------------------------------------------------------+
|      Convergence Field     |     Value    |   Criterion  |  Converged |
+-----------------------------------------------------------------------+
|                  Cauchy[CD]|   0.000778053|       < 1e-10|          No|
+-----------------------------------------------------------------------+
-------------------------------------------------------------------------
|Paraview                           |flow.vtu                           |
Deleted CGeometry container.
Deleted CFreeFormDefBox class.
Deleted CSurfaceMovement class.
Deleted CVolumetricMovement class.
Deleted CConfig container.
Deleted nInst container.
Deleted COutput class.
-------------------------------------------------------------------------

------------------------- Exit Success (SU2_CFD) ------------------------

+-----------------------------------------------------------------------+
|        File Writing Summary       |              Filename             |
+-----------------------------------------------------------------------+
|SU2 restart                        |/home/user/Documents/ICL/PDM/aeroframe_2/test/static/4_WingValidationSU2FramAT_case1/CFD//Case/0/solution_flow.dat|
|Paraview                           |flow.vtu                           |
|Paraview surface                   |surface_flow.vtu                   |
+-----------------------------------------------------------------------+

Writing the forces breakdown file (forces_breakdown.dat).

------------------------- Solver Postprocessing -------------------------
Deleted CNumerics container.
Deleted CIntegration container.
