
-------------------------------------------------------------------------
|    ___ _   _ ___                                                      |
|   / __| | | |_  )   Release 7.0.3 "Blackbird"                         |
|   \__ \ |_| |/ /                                                      |
|   |___/\___//___|   Suite (Computational Fluid Dynamics Code)         |
|                                                                       |
-------------------------------------------------------------------------
| SU2 Project Website: https://su2code.github.io                        |
|                                                                       |
| The SU2 Project is maintained by the SU2 Foundation                   |
| (http://su2foundation.org)                                            |
-------------------------------------------------------------------------
| Copyright 2012-2020, SU2 Contributors                                 |
|                                                                       |
| SU2 is free software; you can redistribute it and/or                  |
| modify it under the terms of the GNU Lesser General Public            |
| License as published by the Free Software Foundation; either          |
| version 2.1 of the License, or (at your option) any later version.    |
|                                                                       |
| SU2 is distributed in the hope that it will be useful,                |
| but WITHOUT ANY WARRANTY; without even the implied warranty of        |
| MERCHANTABILITY or FITNESS FOR A PARTICULAR PURPOSE. See the GNU      |
| Lesser General Public License for more details.                       |
|                                                                       |
| You should have received a copy of the GNU Lesser General Public      |
| License along with SU2. If not, see <http://www.gnu.org/licenses/>.   |
-------------------------------------------------------------------------

Parsing config file for zone 0

----------------- Physical Case Definition ( Zone 0 ) -------------------
Compressible Euler equations.
Mach number: 0.294.
Angle of attack (AoA): 10 deg, and angle of sideslip (AoS): 0 deg.
No restart solution, use the values at infinity (freestream).
Dimensional simulation.
The reference area is 10 m^2.
The semi-span will be computed using the max y(3D) value.
The reference length is 1 m.
Reference origin for moment evaluation is (0, 0, 0).
Surface(s) where the force coefficients are evaluated: Wing_1.

Surface(s) where the objective function is evaluated: airfoil.
Surface(s) plotted in the output file: Wing_1.
Surface(s) to be analyzed in detail: airfoil.
Surface(s) affected by the design variables: Wing_1.
Input mesh file name: /users/disk9/cfse2/Documents/aeroframe_2/test/static/4_WingValidationSU2FramAT_case1/CFD/MESH/FlyingWing_baseline.su2

--------------- Space Numerical Integration ( Zone 0 ) ------------------
Roe (with entropy fix = 0) solver for the flow inviscid terms.
Roe with DDES's FD low-dissipation function.
Second order integration in space, with slope limiter.
Venkatakrishnan slope-limiting method, with constant: 0.05. 
The reference element size is: 1. 
Gradient for upwind reconstruction: Green-Gauss.
Gradient for viscous and source terms: Green-Gauss.

--------------- Time Numerical Integration  ( Zone 0 ) ------------------
Local time stepping (steady state simulation).
Euler implicit method for the flow equations.
FGMRES is used for solving the linear system.
Using a ILU(0) preconditioning.
Convergence criteria of the linear solver: 1e-06.
Max number of linear iterations: 5.
V Multigrid Cycle, with 3 multigrid levels.
Damping factor for the residual restriction: 0.75.
Damping factor for the correction prolongation: 0.75.
No CFL adaptation.
+-------------------------------------------+
|  MG Level| Presmooth|PostSmooth|CorrectSmo|
+-------------------------------------------+
|         0|         1|         0|         0|
|         1|         2|         0|         0|
|         2|         3|         0|         0|
|         3|         3|         0|         0|
+-------------------------------------------+
Courant-Friedrichs-Lewy number:        1

------------------ Convergence Criteria  ( Zone 0 ) ---------------------
Maximum number of solver subiterations: 1000.
Begin convergence monitoring at iteration 10.
Residual minimum value: 1e-8.
Cauchy series min. value: 1e-10.
Number of Cauchy elements: 100.
Begin windowed time average at iteration 15.

-------------------- Output Information ( Zone 0 ) ----------------------
Writing solution files every 10 iterations.
Writing the convergence history file every 1 inner iterations.
Writing the screen convergence history every 1 inner iterations.
The tabular file format is Tecplot (.dat).
Convergence history file name: history.
Forces breakdown file name: forces_breakdown.dat.
Surface file name: surface_flow.
Volume file name: flow.
Restart file name: solution_flow.dat.

------------- Config File Boundary Information ( Zone 0 ) ---------------
+-----------------------------------------------------------------------+
|                        Marker Type|                        Marker Name|
+-----------------------------------------------------------------------+
|                         Euler wall|                             Wing_1|
+-----------------------------------------------------------------------+
|                          Far-field|                           Farfield|
+-----------------------------------------------------------------------+
|                     Symmetry plane|                                  0|
+-----------------------------------------------------------------------+
|           Deformable mesh boundary|                            airfoil|
+-----------------------------------------------------------------------+

-------------------- Output Preprocessing ( Zone 0 ) --------------------
Screen output fields: INNER_ITER, TIME_ITER, RMS_DENSITY, RMS_MOMENTUM-X, RMS_MOMENTUM-Y, RMS_ENERGY, LIFT, DRAG
  Info: Ignoring the following history output groups:
  TIME_ITER
History output group(s): ITER, RMS_RES, AERO_COEFF
Warning: No (valid) fields chosen for convergence monitoring. Convergence monitoring inactive.
Warning: No (valid) fields chosen for time convergence monitoring. Time convergence monitoring inactive.
Volume output fields: COORDINATES, SOLUTION, PRIMITIVE

------------------- Geometry Preprocessing ( Zone 0 ) -------------------
Three dimensional problem.
142678 grid points before partitioning.
739205 volume elements before partitioning.
2 surface markers.
99234 boundary elements in index 0 (Marker = Wing_1).
1280 boundary elements in index 1 (Marker = Farfield).
Executing the partitioning functions.
Building the graph adjacency structure.
Calling ParMETIS... graph partitioning complete (18884 edge cuts).
Distributing ParMETIS coloring.
Rebalancing vertices.
Rebalancing volume element connectivity.
Rebalancing markers and surface elements.
153425 vertices including ghost points. 
767118 interior elements including halo cells. 
767118 tetrahedra.
Establishing MPI communication patterns.
Setting point connectivity.
Renumbering points (Reverse Cuthill McKee Ordering).
Recomputing point connectivity.
Setting element connectivity.
Checking the numerical grid orientation.
Identifying edges and vertices.
Computing centers of gravity.
Setting the control volume structure.
Volume of the computational grid: 587309.
Searching for the closest normal neighbors to the surfaces.
Storing a mapping from global to local point index.
Compute the surface curvature.
Max K: 951.007. Mean K: 12.893. Standard deviation K: 55.0519.
Checking for periodicity.
Computing mesh quality statistics for the dual control volumes.
+--------------------------------------------------------------+
|           Mesh Quality Metric|        Minimum|        Maximum|
+--------------------------------------------------------------+
|    Orthogonality Angle (deg.)|        47.7036|        85.9047|
|     CV Face Area Aspect Ratio|        1.42996|        37.8706|
|           CV Sub-Volume Ratio|        1.02891|        137.912|
+--------------------------------------------------------------+
Setting the multigrid structure.
+-------------------------------------------+
|  MG Level|       CVs|Aggl. Rate|       CFL|
+-------------------------------------------+
|         0|    153425|    1/1.00|         1|
|         1|     27909|     1/5.5|  0.849912|
|         2|      6817|    1/4.09|   0.79692|
Finding max control volume width.
Communicating number of neighbors.
Semi-span length = 5 m.
Wetted area = 42.1877 m^2.
Area projection in the x-plane = 2.98744 m^2, y-plane = 0.416438 m^2, z-plane = 20.1191 m^2.
Max. coordinate in the x-direction = 1.02355 m, y-direction = 5 m, z-direction = 0.162798 m.
Min. coordinate in the x-direction = -0.997208 m, y-direction = -5 m, z-direction = -0.136247 m.
Checking if Euler & Symmetry markers are straight/plane:
Boundary marker Wing_1 is NOT a single plane.
Boundary marker 0 is a single plane.

-------------------- Solver Preprocessing ( Zone 0 ) --------------------
Inviscid flow: Computing density based on free-stream
temperature and pressure using the ideal gas law.
Force coefficients computed using free-stream values.

-- Models:
+------------------------------------------------------------------------------+
|          Viscosity Model|        Conductivity Model|              Fluid Model|
+------------------------------------------------------------------------------+
|                        -|                         -|             STANDARD_AIR|
+------------------------------------------------------------------------------+
-- Fluid properties:
+------------------------------------------------------------------------------+
|                  Name|    Dim. value|    Ref. value|      Unit|Non-dim. value|
+------------------------------------------------------------------------------+
|          Gas Constant|       287.058|             1|  N.m/kg.K|       287.058|
|      Spec. Heat Ratio|             -|             -|         -|           1.4|
+------------------------------------------------------------------------------+
-- Initial and free-stream conditions:
+------------------------------------------------------------------------------+
|                  Name|    Dim. value|    Ref. value|      Unit|Non-dim. value|
+------------------------------------------------------------------------------+
|       Static Pressure|        101325|             1|        Pa|        101325|
|               Density|       1.22498|             1|    kg/m^3|       1.22498|
|           Temperature|        288.15|             1|         K|        288.15|
|          Total Energy|        211794|             1|   m^2/s^2|        211794|
|            Velocity-X|       98.5274|             1|       m/s|       98.5274|
|            Velocity-Y|             0|             1|       m/s|             0|
|            Velocity-Z|        17.373|             1|       m/s|        17.373|
|    Velocity Magnitude|       100.047|             1|       m/s|       100.047|
+------------------------------------------------------------------------------+
|           Mach Number|             -|             -|         -|         0.294|
+------------------------------------------------------------------------------+
Initialize Jacobian structure (Euler). MG level: 0.
Initialize Jacobian structure (Euler). MG level: 1.
Initialize Jacobian structure (Euler). MG level: 2.

------------------- Numerics Preprocessing ( Zone 0 ) -------------------

----------------- Integration Preprocessing ( Zone 0 ) ------------------

------------------- Iteration Preprocessing ( Zone 0 ) ------------------
Euler/Navier-Stokes/RANS fluid iteration.

------------------------------ Begin Solver -----------------------------

Simulation Run using the Single-zone Driver
+-------------------------------------------------------------------------------------------------------+
|  Inner_Iter|   Time_Iter|    rms[Rho]|   rms[RhoU]|   rms[RhoV]|   rms[RhoE]|          CL|          CD|
+-------------------------------------------------------------------------------------------------------+
|           0|           0|   -1.719088|    0.456978|   -0.879351|    3.750012|    1.748706|    0.804212|
|           1|           0|   -1.827232|    0.364713|   -0.231826|    3.642098|    3.044400|    1.386214|
|           2|           0|   -1.830012|    0.392891|   -0.015305|    3.640838|    3.946955|    1.776003|
|           3|           0|   -1.775882|    0.478448|    0.105585|    3.695684|    4.526589|    2.006779|
|           4|           0|   -1.713096|    0.576565|    0.202697|    3.758902|    4.849897|    2.110371|
|           5|           0|   -1.654574|    0.675503|    0.296236|    3.818082|    4.976998|    2.116596|
|           6|           0|   -1.600656|    0.772102|    0.390602|    3.872893|    4.958885|    2.051687|
|           7|           0|   -1.550600|    0.864341|    0.485198|    3.923968|    4.838571|    1.937964|
|           8|           0|   -1.504196|    0.950731|    0.578511|    3.971387|    4.651802|    1.794082|
|           9|           0|   -1.462068|    1.030288|    0.669110|    4.014424|    4.427413|    1.635305|
|          10|           0|   -1.424866|    1.102639|    0.755688|    4.052354|    4.186097|    1.472994|
+-----------------------------------------------------------------------+
|        File Writing Summary       |              Filename             |
+-----------------------------------------------------------------------+
|SU2 restart                        |solution_flow.dat                  |
|Paraview                           |flow.vtu                           |
|Paraview surface                   |surface_flow.vtu                   |
+-----------------------------------------------------------------------+

Writing the forces breakdown file (forces_breakdown.dat).
+-------------------------------------------------------------------------------------------------------+
|  Inner_Iter|   Time_Iter|    rms[Rho]|   rms[RhoU]|   rms[RhoV]|   rms[RhoE]|          CL|          CD|
+-------------------------------------------------------------------------------------------------------+
|          11|           0|   -1.393127|    1.167578|    0.837311|    4.084553|    3.941546|    1.314717|
|          12|           0|   -1.367210|    1.225185|    0.913327|    4.110548|    3.702629|    1.165419|
|          13|           0|   -1.347246|    1.275614|    0.983171|    4.130071|    3.474298|    1.027731|
|          14|           0|   -1.333160|    1.319079|    1.046534|    4.143001|    3.258370|    0.902423|
|          15|           0|   -1.324507|    1.355849|    1.103307|    4.149560|    3.054538|    0.789023|
|          16|           0|   -1.320312|    1.386150|    1.153493|    4.150474|    2.861103|    0.686314|
|          17|           0|   -1.319160|    1.410192|    1.197109|    4.146937|    2.675705|    0.592721|
|          18|           0|   -1.318949|    1.428246|    1.234272|    4.141014|    2.495793|    0.506578|
|          19|           0|   -1.316899|    1.440603|    1.265160|    4.135926|    2.318970|    0.426325|
|          20|           0|   -1.310458|    1.447648|    1.290063|    4.135321|    2.143318|    0.350662|
+-----------------------------------------------------------------------+
|        File Writing Summary       |              Filename             |
+-----------------------------------------------------------------------+
|SU2 restart                        |solution_flow.dat                  |
|Paraview                           |flow.vtu                           |
|Paraview surface                   |surface_flow.vtu                   |
+-----------------------------------------------------------------------+

Writing the forces breakdown file (forces_breakdown.dat).
+-------------------------------------------------------------------------------------------------------+
|  Inner_Iter|   Time_Iter|    rms[Rho]|   rms[RhoU]|   rms[RhoV]|   rms[RhoE]|          CL|          CD|
+-------------------------------------------------------------------------------------------------------+
|          21|           0|   -1.297992|    1.449700|    1.309133|    4.142302|    1.967494|    0.278589|
|          22|           0|   -1.279312|    1.447462|    1.322848|    4.158320|    1.790849|    0.209452|
|          23|           0|   -1.255913|    1.441711|    1.331585|    4.182220|    1.613402|    0.142925|
|          24|           0|   -1.230416|    1.433309|    1.335888|    4.210687|    1.435783|    0.078973|
|          25|           0|   -1.205522|    1.423472|    1.336248|    4.239977|    1.259114|    0.017800|
|          26|           0|   -1.183704|    1.413070|    1.333504|    4.266558|    1.084860|   -0.040236|
|          27|           0|   -1.166490|    1.402923|    1.328095|    4.288337|    0.914712|   -0.094687|
|          28|           0|   -1.154223|    1.393488|    1.320790|    4.304688|    0.750446|   -0.145071|
|          29|           0|   -1.146863|    1.384411|    1.311689|    4.315342|    0.593811|   -0.190921|
|          30|           0|   -1.143995|    1.374942|    1.300582|    4.320543|    0.446454|   -0.231825|
+-----------------------------------------------------------------------+
|        File Writing Summary       |              Filename             |
+-----------------------------------------------------------------------+
|SU2 restart                        |solution_flow.dat                  |
|Paraview                           |flow.vtu                           |
|Paraview surface                   |surface_flow.vtu                   |
+-----------------------------------------------------------------------+

Writing the forces breakdown file (forces_breakdown.dat).
+-------------------------------------------------------------------------------------------------------+
|  Inner_Iter|   Time_Iter|    rms[Rho]|   rms[RhoU]|   rms[RhoV]|   rms[RhoE]|          CL|          CD|
+-------------------------------------------------------------------------------------------------------+
|          31|           0|   -1.144267|    1.364760|    1.287290|    4.321430|    0.309891|   -0.267441|
|          32|           0|   -1.145688|    1.354003|    1.271312|    4.319985|    0.185451|   -0.297521|
|          33|           0|   -1.146475|    1.342831|    1.251892|    4.318059|    0.074279|   -0.321907|
|          34|           0|   -1.143601|    1.332029|    1.229277|    4.318840|   -0.022663|   -0.340521|
|          35|           0|   -1.135003|    1.323505|    1.204142|    4.325059|   -0.104596|   -0.353371|
|          36|           0|   -1.121885|    1.320013|    1.179011|    4.336103|   -0.170910|   -0.360527|
|          37|           0|   -1.104651|    1.324619|    1.158941|    4.352026|   -0.221155|   -0.362116|
|          38|           0|   -1.085992|    1.339534|    1.151964|    4.370262|   -0.255014|   -0.358304|
|          39|           0|   -1.068955|    1.363214|    1.164514|    4.387513|   -0.272275|   -0.349286|
|          40|           0|   -1.056100|    1.392566|    1.196613|    4.400834|   -0.272868|   -0.335283|
+-----------------------------------------------------------------------+
|        File Writing Summary       |              Filename             |
+-----------------------------------------------------------------------+
|SU2 restart                        |solution_flow.dat                  |
|Paraview                           |flow.vtu                           |
|Paraview surface                   |surface_flow.vtu                   |
+-----------------------------------------------------------------------+

Writing the forces breakdown file (forces_breakdown.dat).
+-------------------------------------------------------------------------------------------------------+
|  Inner_Iter|   Time_Iter|    rms[Rho]|   rms[RhoU]|   rms[RhoV]|   rms[RhoE]|          CL|          CD|
+-------------------------------------------------------------------------------------------------------+
|          41|           0|   -1.048549|    1.424358|    1.242692|    4.408788|   -0.256855|   -0.316540|
|          42|           0|   -1.047661|    1.455243|    1.293983|    4.409737|   -0.224435|   -0.293322|
|          43|           0|   -1.052497|    1.482494|    1.344274|    4.404278|   -0.175973|   -0.265918|
|          44|           0|   -1.062934|    1.504413|    1.389464|    4.392225|   -0.111994|   -0.234647|
|          45|           0|   -1.077612|    1.520679|    1.427301|    4.374728|   -0.033181|   -0.199847|
|          46|           0|   -1.095994|    1.531467|    1.457207|    4.352373|    0.059575|   -0.161899|
|          47|           0|   -1.113762|    1.535261|    1.478600|    4.329253|    0.165180|   -0.121214|
|          48|           0|   -1.127058|    1.532484|    1.491923|    4.310314|    0.282376|   -0.078240|
|          49|           0|   -1.132406|    1.522704|    1.496903|    4.300268|    0.409748|   -0.033459|
|          50|           0|   -1.127455|    1.506262|    1.494036|    4.303230|    0.545726|    0.012614|
+-----------------------------------------------------------------------+
|        File Writing Summary       |              Filename             |
+-----------------------------------------------------------------------+
|SU2 restart                        |solution_flow.dat                  |
|Paraview                           |flow.vtu                           |
|Paraview surface                   |surface_flow.vtu                   |
+-----------------------------------------------------------------------+

Writing the forces breakdown file (forces_breakdown.dat).
+-------------------------------------------------------------------------------------------------------+
|  Inner_Iter|   Time_Iter|    rms[Rho]|   rms[RhoU]|   rms[RhoV]|   rms[RhoE]|          CL|          CD|
+-------------------------------------------------------------------------------------------------------+
|          51|           0|   -1.114706|    1.482792|    1.483866|    4.317055|    0.688579|    0.059429|
|          52|           0|   -1.096141|    1.452827|    1.466637|    4.339260|    0.836509|    0.106423|
|          53|           0|   -1.076074|    1.418919|    1.442646|    4.364346|    0.987623|    0.153017|
|          54|           0|   -1.057157|    1.382910|    1.413489|    4.388676|    1.139958|    0.198624|
|          55|           0|   -1.041453|    1.348712|    1.381936|    4.409572|    1.291552|    0.242667|
|          56|           0|   -1.030547|    1.320775|    1.352521|    4.425025|    1.440461|    0.284582|
|          57|           0|   -1.025348|    1.304148|    1.330080|    4.433883|    1.584797|    0.323837|
|          58|           0|   -1.025607|    1.301795|    1.318979|    4.436407|    1.722751|    0.359937|
|          59|           0|   -1.030582|    1.313167|    1.322300|    4.433274|    1.852619|    0.392436|
|          60|           0|   -1.040363|    1.333798|    1.338687|    4.424078|    1.972869|    0.420948|
+-----------------------------------------------------------------------+
|        File Writing Summary       |              Filename             |
+-----------------------------------------------------------------------+
|SU2 restart                        |solution_flow.dat                  |
|Paraview                           |flow.vtu                           |
|Paraview surface                   |surface_flow.vtu                   |
+-----------------------------------------------------------------------+

Writing the forces breakdown file (forces_breakdown.dat).
+-------------------------------------------------------------------------------------------------------+
|  Inner_Iter|   Time_Iter|    rms[Rho]|   rms[RhoU]|   rms[RhoV]|   rms[RhoE]|          CL|          CD|
+-------------------------------------------------------------------------------------------------------+
|          61|           0|   -1.053624|    1.358563|    1.363099|    4.409962|    2.082155|    0.445159|
|          62|           0|   -1.069336|    1.383956|    1.391047|    4.391733|    2.179335|    0.464828|
|          63|           0|   -1.086586|    1.407936|    1.418481|    4.370092|    2.263487|    0.479792|
|          64|           0|   -1.102846|    1.428652|    1.442966|    4.347618|    2.333913|    0.489967|
|          65|           0|   -1.117631|    1.444899|    1.463457|    4.325009|    2.390151|    0.495347|
|          66|           0|   -1.130537|    1.456514|    1.479368|    4.303457|    2.431967|    0.496003|
|          67|           0|   -1.140556|    1.463551|    1.490259|    4.284670|    2.459340|    0.492076|
|          68|           0|   -1.147362|    1.466139|    1.496478|    4.269920|    2.472486|    0.483781|
|          69|           0|   -1.151964|    1.464289|    1.498169|    4.259214|    2.471849|    0.471402|
|          70|           0|   -1.155488|    1.457615|    1.494905|    4.252000|    2.458049|    0.455278|
+-----------------------------------------------------------------------+
|        File Writing Summary       |              Filename             |
+-----------------------------------------------------------------------+
|SU2 restart                        |solution_flow.dat                  |
|Paraview                           |flow.vtu                           |
|Paraview surface                   |surface_flow.vtu                   |
+-----------------------------------------------------------------------+

Writing the forces breakdown file (forces_breakdown.dat).
+-------------------------------------------------------------------------------------------------------+
|  Inner_Iter|   Time_Iter|    rms[Rho]|   rms[RhoU]|   rms[RhoV]|   rms[RhoE]|          CL|          CD|
+-------------------------------------------------------------------------------------------------------+
|          71|           0|   -1.156816|    1.446420|    1.486910|    4.250153|    2.431907|    0.435801|
|          72|           0|   -1.156399|    1.431028|    1.474526|    4.252973|    2.394384|    0.413399|
|          73|           0|   -1.155337|    1.411117|    1.458002|    4.258609|    2.346563|    0.388531|
|          74|           0|   -1.154137|    1.387023|    1.437898|    4.265721|    2.289658|    0.361684|
|          75|           0|   -1.153502|    1.358640|    1.414736|    4.272869|    2.224933|    0.333348|
|          76|           0|   -1.153918|    1.326844|    1.389439|    4.278973|    2.153683|    0.304010|
|          77|           0|   -1.156212|    1.292277|    1.362674|    4.282679|    2.077224|    0.274147|
|          78|           0|   -1.160781|    1.256452|    1.335913|    4.283437|    1.996887|    0.244221|
|          79|           0|   -1.167880|    1.220589|    1.311387|    4.280832|    1.913967|    0.214667|
|          80|           0|   -1.177645|    1.189270|    1.290932|    4.274761|    1.829705|    0.185886|
+-----------------------------------------------------------------------+
|        File Writing Summary       |              Filename             |
+-----------------------------------------------------------------------+
|SU2 restart                        |solution_flow.dat                  |
|Paraview                           |flow.vtu                           |
|Paraview surface                   |surface_flow.vtu                   |
+-----------------------------------------------------------------------+

Writing the forces breakdown file (forces_breakdown.dat).
+-------------------------------------------------------------------------------------------------------+
|  Inner_Iter|   Time_Iter|    rms[Rho]|   rms[RhoU]|   rms[RhoV]|   rms[RhoE]|          CL|          CD|
+-------------------------------------------------------------------------------------------------------+
|          81|           0|   -1.190689|    1.164049|    1.275806|    4.264351|    1.745291|    0.158243|
|          82|           0|   -1.206172|    1.147646|    1.266214|    4.250606|    1.661820|    0.132063|
|          83|           0|   -1.223896|    1.141249|    1.262072|    4.233535|    1.580309|    0.107625|
|          84|           0|   -1.243357|    1.144021|    1.262313|    4.213656|    1.501676|    0.085164|
|          85|           0|   -1.264499|    1.153850|    1.265231|    4.190945|    1.426747|    0.064864|
|          86|           0|   -1.285752|    1.168516|    1.269417|    4.166995|    1.356248|    0.046865|
|          87|           0|   -1.306453|    1.185394|    1.273406|    4.142443|    1.290798|    0.031260|
|          88|           0|   -1.325831|    1.202464|    1.276504|    4.118299|    1.230917|    0.018102|
|          89|           0|   -1.343434|    1.218405|    1.278156|    4.095325|    1.177014|    0.007403|
|          90|           0|   -1.359013|    1.231699|    1.277976|    4.074042|    1.129432|   -0.000858|
+-----------------------------------------------------------------------+
|        File Writing Summary       |              Filename             |
+-----------------------------------------------------------------------+
|SU2 restart                        |solution_flow.dat                  |
|Paraview                           |flow.vtu                           |
|Paraview surface                   |surface_flow.vtu                   |
+-----------------------------------------------------------------------+

Writing the forces breakdown file (forces_breakdown.dat).
+-------------------------------------------------------------------------------------------------------+
|  Inner_Iter|   Time_Iter|    rms[Rho]|   rms[RhoU]|   rms[RhoV]|   rms[RhoE]|          CL|          CD|
+-------------------------------------------------------------------------------------------------------+
|          91|           0|   -1.372260|    1.242435|    1.275814|    4.055208|    1.088412|   -0.006734|
|          92|           0|   -1.383429|    1.250312|    1.271765|    4.038959|    1.054103|   -0.010312|
|          93|           0|   -1.392649|    1.255932|    1.265737|    4.025444|    1.026583|   -0.011700|
|          94|           0|   -1.400480|    1.259505|    1.257694|    4.014386|    1.005855|   -0.011026|
|          95|           0|   -1.407977|    1.260745|    1.248014|    4.004598|    0.991860|   -0.008436|
|          96|           0|   -1.416562|    1.259706|    1.236994|    3.994484|    0.984471|   -0.004089|
|          97|           0|   -1.426583|    1.256557|    1.224626|    3.983577|    0.983534|    0.001849|
|          98|           0|   -1.438086|    1.251333|    1.211210|    3.971827|    0.988829|    0.009206|
|          99|           0|   -1.451112|    1.244300|    1.196586|    3.959100|    1.000100|    0.017806|
|         100|           0|   -1.465229|    1.235394|    1.181058|    3.945813|    1.017049|    0.027475|
+-----------------------------------------------------------------------+
|        File Writing Summary       |              Filename             |
+-----------------------------------------------------------------------+
|SU2 restart                        |solution_flow.dat                  |
|Paraview                           |flow.vtu                           |
|Paraview surface                   |surface_flow.vtu                   |
+-----------------------------------------------------------------------+

Writing the forces breakdown file (forces_breakdown.dat).
+-------------------------------------------------------------------------------------------------------+
|  Inner_Iter|   Time_Iter|    rms[Rho]|   rms[RhoU]|   rms[RhoV]|   rms[RhoE]|          CL|          CD|
+-------------------------------------------------------------------------------------------------------+
|         101|           0|   -1.480304|    1.224816|    1.165022|    3.932137|    1.039331|    0.038037|
|         102|           0|   -1.496028|    1.212381|    1.148577|    3.918511|    1.066589|    0.049321|
|         103|           0|   -1.512032|    1.198222|    1.131991|    3.905297|    1.098397|    0.061154|
|         104|           0|   -1.528140|    1.182375|    1.115428|    3.892621|    1.134313|    0.073371|
|         105|           0|   -1.544074|    1.164752|    1.099139|    3.880747|    1.173881|    0.085814|
|         106|           0|   -1.559104|    1.145906|    1.082965|    3.870286|    1.216615|    0.098332|
|         107|           0|   -1.573451|    1.126279|    1.066972|    3.860941|    1.261994|    0.110779|
|         108|           0|   -1.586891|    1.106204|    1.051383|    3.852744|    1.309499|    0.123023|
|         109|           0|   -1.599811|    1.086644|    1.036079|    3.845046|    1.358595|    0.134941|
|         110|           0|   -1.611910|    1.067921|    1.021427|    3.837958|    1.408753|    0.146421|
+-----------------------------------------------------------------------+
|        File Writing Summary       |              Filename             |
+-----------------------------------------------------------------------+
|SU2 restart                        |solution_flow.dat                  |
|Paraview                           |flow.vtu                           |
|Paraview surface                   |surface_flow.vtu                   |
+-----------------------------------------------------------------------+

Writing the forces breakdown file (forces_breakdown.dat).
+-------------------------------------------------------------------------------------------------------+
|  Inner_Iter|   Time_Iter|    rms[Rho]|   rms[RhoU]|   rms[RhoV]|   rms[RhoE]|          CL|          CD|
+-------------------------------------------------------------------------------------------------------+
|         111|           0|   -1.623299|    1.050800|    1.007650|    3.831063|    1.459442|    0.157360|
|         112|           0|   -1.634481|    1.035586|    0.995147|    3.823392|    1.510118|    0.167664|
|         113|           0|   -1.644926|    1.023135|    0.984341|    3.815650|    1.560255|    0.177249|
|         114|           0|   -1.654395|    1.013855|    0.975557|    3.807983|    1.609339|    0.186040|
|         115|           0|   -1.663344|    1.008171|    0.968988|    3.799952|    1.656869|    0.193974|
|         116|           0|   -1.672068|    1.006005|    0.964651|    3.791175|    1.702366|    0.200999|
|         117|           0|   -1.680182|    1.006537|    0.962682|    3.781813|    1.745388|    0.207077|
|         118|           0|   -1.687800|    1.010022|    0.962822|    3.771980|    1.785530|    0.212180|
|         119|           0|   -1.694965|    1.016609|    0.964634|    3.761865|    1.822428|    0.216292|
|         120|           0|   -1.702088|    1.024950|    0.967709|    3.750972|    1.855747|    0.219403|
+-----------------------------------------------------------------------+
|        File Writing Summary       |              Filename             |
+-----------------------------------------------------------------------+
|SU2 restart                        |solution_flow.dat                  |
|Paraview                           |flow.vtu                           |
|Paraview surface                   |surface_flow.vtu                   |
+-----------------------------------------------------------------------+

Writing the forces breakdown file (forces_breakdown.dat).
+-------------------------------------------------------------------------------------------------------+
|  Inner_Iter|   Time_Iter|    rms[Rho]|   rms[RhoU]|   rms[RhoV]|   rms[RhoE]|          CL|          CD|
+-------------------------------------------------------------------------------------------------------+
|         121|           0|   -1.709316|    1.034108|    0.971678|    3.739219|    1.885166|    0.221504|
|         122|           0|   -1.716525|    1.043271|    0.976076|    3.726937|    1.910451|    0.222609|
|         123|           0|   -1.724176|    1.052316|    0.980635|    3.713861|    1.931405|    0.222740|
|         124|           0|   -1.731739|    1.060586|    0.984708|    3.700707|    1.947876|    0.221924|
|         125|           0|   -1.739177|    1.067488|    0.987919|    3.687688|    1.959763|    0.220198|
|         126|           0|   -1.746561|    1.072358|    0.989837|    3.674785|    1.967019|    0.217605|
|         127|           0|   -1.753591|    1.075092|    0.990069|    3.662611|    1.969669|    0.214204|
|         128|           0|   -1.759880|    1.075648|    0.988316|    3.652135|    1.967798|    0.210062|
|         129|           0|   -1.764969|    1.073891|    0.984225|    3.644175|    1.961534|    0.205250|
|         130|           0|   -1.768354|    1.069815|    0.977556|    3.639607|    1.951074|    0.199850|
+-----------------------------------------------------------------------+
|        File Writing Summary       |              Filename             |
+-----------------------------------------------------------------------+
|SU2 restart                        |solution_flow.dat                  |
|Paraview                           |flow.vtu                           |
|Paraview surface                   |surface_flow.vtu                   |
+-----------------------------------------------------------------------+

Writing the forces breakdown file (forces_breakdown.dat).
+-------------------------------------------------------------------------------------------------------+
|  Inner_Iter|   Time_Iter|    rms[Rho]|   rms[RhoU]|   rms[RhoV]|   rms[RhoE]|          CL|          CD|
+-------------------------------------------------------------------------------------------------------+
|         131|           0|   -1.769868|    1.063173|    0.968058|    3.638665|    1.936655|    0.193945|
|         132|           0|   -1.769361|    1.053897|    0.955676|    3.641504|    1.918567|    0.187625|
|         133|           0|   -1.767228|    1.042668|    0.940309|    3.647641|    1.897144|    0.180983|
|         134|           0|   -1.764425|    1.028891|    0.921929|    3.655503|    1.872733|    0.174110|
|         135|           0|   -1.760740|    1.013055|    0.900552|    3.665067|    1.845714|    0.167100|
|         136|           0|   -1.756820|    0.995095|    0.876075|    3.675129|    1.816485|    0.160043|
|         137|           0|   -1.752889|    0.975325|    0.848519|    3.685135|    1.785457|    0.153028|
|         138|           0|   -1.749429|    0.954374|    0.818280|    3.694433|    1.753072|    0.146142|
|         139|           0|   -1.746545|    0.933620|    0.786059|    3.702958|    1.719775|    0.139468|
|         140|           0|   -1.745152|    0.912313|    0.752418|    3.709223|    1.685995|    0.133080|
+-----------------------------------------------------------------------+
|        File Writing Summary       |              Filename             |
+-----------------------------------------------------------------------+
|SU2 restart                        |solution_flow.dat                  |
|Paraview                           |flow.vtu                           |
|Paraview surface                   |surface_flow.vtu                   |
+-----------------------------------------------------------------------+

Writing the forces breakdown file (forces_breakdown.dat).
+-------------------------------------------------------------------------------------------------------+
|  Inner_Iter|   Time_Iter|    rms[Rho]|   rms[RhoU]|   rms[RhoV]|   rms[RhoE]|          CL|          CD|
+-------------------------------------------------------------------------------------------------------+
|         141|           0|   -1.745102|    0.891856|    0.719206|    3.713531|    1.652164|    0.127049|
|         142|           0|   -1.746710|    0.874297|    0.689091|    3.715661|    1.618699|    0.121435|
|         143|           0|   -1.749602|    0.860250|    0.664555|    3.715625|    1.586006|    0.116292|
|         144|           0|   -1.754335|    0.850908|    0.648595|    3.712830|    1.554473|    0.111664|
|         145|           0|   -1.759869|    0.846752|    0.643031|    3.708424|    1.524489|    0.107594|
|         146|           0|   -1.766390|    0.847297|    0.647968|    3.702044|    1.496391|    0.104111|
|         147|           0|   -1.774134|    0.851942|    0.661530|    3.693375|    1.470496|    0.101236|
|         148|           0|   -1.782803|    0.859562|    0.680918|    3.682594|    1.447057|    0.098973|
|         149|           0|   -1.791636|    0.869177|    0.703237|    3.670461|    1.426301|    0.097318|
|         150|           0|   -1.800622|    0.879832|    0.726305|    3.656834|    1.408410|    0.096259|
+-----------------------------------------------------------------------+
|        File Writing Summary       |              Filename             |
+-----------------------------------------------------------------------+
|SU2 restart                        |solution_flow.dat                  |
|Paraview                           |flow.vtu                           |
|Paraview surface                   |surface_flow.vtu                   |
+-----------------------------------------------------------------------+

Writing the forces breakdown file (forces_breakdown.dat).
+-------------------------------------------------------------------------------------------------------+
|  Inner_Iter|   Time_Iter|    rms[Rho]|   rms[RhoU]|   rms[RhoV]|   rms[RhoE]|          CL|          CD|
+-------------------------------------------------------------------------------------------------------+
|         151|           0|   -1.809228|    0.890664|    0.748564|    3.642196|    1.393545|    0.095780|
|         152|           0|   -1.816745|    0.901053|    0.768965|    3.627496|    1.381813|    0.095856|
|         153|           0|   -1.823261|    0.909975|    0.786701|    3.612866|    1.373286|    0.096457|
|         154|           0|   -1.828340|    0.917402|    0.801537|    3.599160|    1.368006|    0.097548|
|         155|           0|   -1.831788|    0.923013|    0.813266|    3.587131|    1.365962|    0.099089|
|         156|           0|   -1.833476|    0.926470|    0.821849|    3.577526|    1.367116|    0.101036|
|         157|           0|   -1.833689|    0.927942|    0.827285|    3.570616|    1.371397|    0.103343|
|         158|           0|   -1.833014|    0.927242|    0.829578|    3.566089|    1.378686|    0.105958|
|         159|           0|   -1.831783|    0.924194|    0.828929|    3.563912|    1.388829|    0.108829|
|         160|           0|   -1.830193|    0.918587|    0.825265|    3.563917|    1.401644|    0.111905|
+-----------------------------------------------------------------------+
|        File Writing Summary       |              Filename             |
+-----------------------------------------------------------------------+
|SU2 restart                        |solution_flow.dat                  |
|Paraview                           |flow.vtu                           |
|Paraview surface                   |surface_flow.vtu                   |
+-----------------------------------------------------------------------+

Writing the forces breakdown file (forces_breakdown.dat).
+-------------------------------------------------------------------------------------------------------+
|  Inner_Iter|   Time_Iter|    rms[Rho]|   rms[RhoU]|   rms[RhoV]|   rms[RhoE]|          CL|          CD|
+-------------------------------------------------------------------------------------------------------+
|         161|           0|   -1.828513|    0.910346|    0.818604|    3.565767|    1.416927|    0.115131|
|         162|           0|   -1.826937|    0.899726|    0.809056|    3.569223|    1.434444|    0.118457|
|         163|           0|   -1.825439|    0.886432|    0.797083|    3.574023|    1.453951|    0.121832|
|         164|           0|   -1.824710|    0.870963|    0.782410|    3.579130|    1.475177|    0.125206|
|         165|           0|   -1.824871|    0.853185|    0.765169|    3.584081|    1.497837|    0.128531|
|         166|           0|   -1.825922|    0.833337|    0.745483|    3.588735|    1.521639|    0.131764|
|         167|           0|   -1.827980|    0.811426|    0.723437|    3.592729|    1.546278|    0.134864|
|         168|           0|   -1.831228|    0.788079|    0.699532|    3.595596|    1.571451|    0.137791|
|         169|           0|   -1.835508|    0.763881|    0.674316|    3.597389|    1.596848|    0.140512|
|         170|           0|   -1.840686|    0.739353|    0.648504|    3.598008|    1.622162|    0.142995|
+-----------------------------------------------------------------------+
|        File Writing Summary       |              Filename             |
+-----------------------------------------------------------------------+
|SU2 restart                        |solution_flow.dat                  |
|Paraview                           |flow.vtu                           |
|Paraview surface                   |surface_flow.vtu                   |
+-----------------------------------------------------------------------+

Writing the forces breakdown file (forces_breakdown.dat).
+-------------------------------------------------------------------------------------------------------+
|  Inner_Iter|   Time_Iter|    rms[Rho]|   rms[RhoU]|   rms[RhoV]|   rms[RhoE]|          CL|          CD|
+-------------------------------------------------------------------------------------------------------+
|         171|           0|   -1.846460|    0.715486|    0.623156|    3.597678|    1.647106|    0.145214|
|         172|           0|   -1.852384|    0.693397|    0.599491|    3.596709|    1.671391|    0.147149|
|         173|           0|   -1.858857|    0.674295|    0.578960|    3.594478|    1.694746|    0.148780|
|         174|           0|   -1.865781|    0.659636|    0.562744|    3.590922|    1.716910|    0.150096|
|         175|           0|   -1.872973|    0.650687|    0.552069|    3.586203|    1.737652|    0.151092|
|         176|           0|   -1.880511|    0.647863|    0.547718|    3.580136|    1.756746|    0.151763|
|         177|           0|   -1.888528|    0.650935|    0.549545|    3.572440|    1.774010|    0.152113|
|         178|           0|   -1.896271|    0.658977|    0.556806|    3.563849|    1.789267|    0.152146|
|         179|           0|   -1.903953|    0.670719|    0.568325|    3.554146|    1.802371|    0.151870|
|         180|           0|   -1.911641|    0.684656|    0.582655|    3.543209|    1.813211|    0.151297|
+-----------------------------------------------------------------------+
|        File Writing Summary       |              Filename             |
+-----------------------------------------------------------------------+
|SU2 restart                        |solution_flow.dat                  |
|Paraview                           |flow.vtu                           |
|Paraview surface                   |surface_flow.vtu                   |
+-----------------------------------------------------------------------+

Writing the forces breakdown file (forces_breakdown.dat).
+-------------------------------------------------------------------------------------------------------+
|  Inner_Iter|   Time_Iter|    rms[Rho]|   rms[RhoU]|   rms[RhoV]|   rms[RhoE]|          CL|          CD|
+-------------------------------------------------------------------------------------------------------+
|         181|           0|   -1.919328|    0.699717|    0.598360|    3.531075|    1.821705|    0.150443|
|         182|           0|   -1.926864|    0.714796|    0.614156|    3.518037|    1.827792|    0.149327|
|         183|           0|   -1.934312|    0.729072|    0.629123|    3.504186|    1.831460|    0.147974|
|         184|           0|   -1.941601|    0.742136|    0.642594|    3.489888|    1.832715|    0.146406|
|         185|           0|   -1.948182|    0.753169|    0.654099|    3.475853|    1.831599|    0.144654|
|         186|           0|   -1.953862|    0.761921|    0.663352|    3.462685|    1.828183|    0.142744|
|         187|           0|   -1.958724|    0.768153|    0.670121|    3.450685|    1.822564|    0.140710|
|         188|           0|   -1.962705|    0.771660|    0.674273|    3.440240|    1.814872|    0.138585|
|         189|           0|   -1.966183|    0.772372|    0.675735|    3.431451|    1.805263|    0.136403|
|         190|           0|   -1.969066|    0.770300|    0.674437|    3.424832|    1.793912|    0.134199|
+-----------------------------------------------------------------------+
|        File Writing Summary       |              Filename             |
+-----------------------------------------------------------------------+
|SU2 restart                        |solution_flow.dat                  |
|Paraview                           |flow.vtu                           |
|Paraview surface                   |surface_flow.vtu                   |
+-----------------------------------------------------------------------+

Writing the forces breakdown file (forces_breakdown.dat).
+-------------------------------------------------------------------------------------------------------+
|  Inner_Iter|   Time_Iter|    rms[Rho]|   rms[RhoU]|   rms[RhoV]|   rms[RhoE]|          CL|          CD|
+-------------------------------------------------------------------------------------------------------+
|         191|           0|   -1.971361|    0.765573|    0.670387|    3.420617|    1.781008|    0.132004|
|         192|           0|   -1.973258|    0.758036|    0.663416|    3.418553|    1.766763|    0.129853|
|         193|           0|   -1.974471|    0.747520|    0.653573|    3.418958|    1.751382|    0.127774|
|         194|           0|   -1.975467|    0.734027|    0.640854|    3.421076|    1.735079|    0.125792|
|         195|           0|   -1.976443|    0.717486|    0.625218|    3.424457|    1.718080|    0.123933|
|         196|           0|   -1.977657|    0.697895|    0.606650|    3.428523|    1.700611|    0.122219|
|         197|           0|   -1.979018|    0.675336|    0.585372|    3.433145|    1.682900|    0.120668|
|         198|           0|   -1.980797|    0.650024|    0.561548|    3.437745|    1.665164|    0.119296|
|         199|           0|   -1.983137|    0.622340|    0.535547|    3.441832|    1.647621|    0.118116|
|         200|           0|   -1.986173|    0.592318|    0.507927|    3.445083|    1.630482|    0.117138|
+-----------------------------------------------------------------------+
|        File Writing Summary       |              Filename             |
+-----------------------------------------------------------------------+
|SU2 restart                        |solution_flow.dat                  |
|Paraview                           |flow.vtu                           |
|Paraview surface                   |surface_flow.vtu                   |
+-----------------------------------------------------------------------+

Writing the forces breakdown file (forces_breakdown.dat).
+-------------------------------------------------------------------------------------------------------+
|  Inner_Iter|   Time_Iter|    rms[Rho]|   rms[RhoU]|   rms[RhoV]|   rms[RhoE]|          CL|          CD|
+-------------------------------------------------------------------------------------------------------+
|         201|           0|   -1.989961|    0.560713|    0.479458|    3.447239|    1.613949|    0.116372|
|         202|           0|   -1.994827|    0.528613|    0.451487|    3.447759|    1.598213|    0.115819|
|         203|           0|   -2.000593|    0.497524|    0.425767|    3.446747|    1.583457|    0.115483|
|         204|           0|   -2.007216|    0.469492|    0.404238|    3.444198|    1.569844|    0.115363|
|         205|           0|   -2.014574|    0.446688|    0.388854|    3.440048|    1.557527|    0.115454|
|         206|           0|   -2.022537|    0.431176|    0.380820|    3.434370|    1.546634|    0.115750|
|         207|           0|   -2.030871|    0.424286|    0.380594|    3.427310|    1.537278|    0.116242|
|         208|           0|   -2.039287|    0.426390|    0.387555|    3.419158|    1.529548|    0.116919|
|         209|           0|   -2.048383|    0.435230|    0.399981|    3.409085|    1.523517|    0.117766|
|         210|           0|   -2.057762|    0.449184|    0.416054|    3.397506|    1.519235|    0.118770|
+-----------------------------------------------------------------------+
|        File Writing Summary       |              Filename             |
+-----------------------------------------------------------------------+
|SU2 restart                        |solution_flow.dat                  |
|Paraview                           |flow.vtu                           |
|Paraview surface                   |surface_flow.vtu                   |
+-----------------------------------------------------------------------+

Writing the forces breakdown file (forces_breakdown.dat).
+-------------------------------------------------------------------------------------------------------+
|  Inner_Iter|   Time_Iter|    rms[Rho]|   rms[RhoU]|   rms[RhoV]|   rms[RhoE]|          CL|          CD|
+-------------------------------------------------------------------------------------------------------+
|         211|           0|   -2.066494|    0.466872|    0.433886|    3.385448|    1.516733|    0.119913|
|         212|           0|   -2.074486|    0.486110|    0.451903|    3.373080|    1.516023|    0.121177|
|         213|           0|   -2.081574|    0.505234|    0.468953|    3.360654|    1.517088|    0.122542|
|         214|           0|   -2.087827|    0.523081|    0.484264|    3.348312|    1.519898|    0.123987|
|         215|           0|   -2.093171|    0.538822|    0.497386|    3.336393|    1.524397|    0.125491|
|         216|           0|   -2.097468|    0.552230|    0.508110|    3.325367|    1.530513|    0.127032|
|         217|           0|   -2.101112|    0.563154|    0.516298|    3.315153|    1.538154|    0.128587|
|         218|           0|   -2.104371|    0.571064|    0.521893|    3.305733|    1.547211|    0.130136|
|         219|           0|   -2.107197|    0.576256|    0.524792|    3.297563|    1.557562|    0.131657|
|         220|           0|   -2.109227|    0.578433|    0.524969|    3.291456|    1.569064|    0.133130|
+-----------------------------------------------------------------------+
|        File Writing Summary       |              Filename             |
+-----------------------------------------------------------------------+
|SU2 restart                        |solution_flow.dat                  |
|Paraview                           |flow.vtu                           |
|Paraview surface                   |surface_flow.vtu                   |
+-----------------------------------------------------------------------+

Writing the forces breakdown file (forces_breakdown.dat).
+-------------------------------------------------------------------------------------------------------+
|  Inner_Iter|   Time_Iter|    rms[Rho]|   rms[RhoU]|   rms[RhoV]|   rms[RhoE]|          CL|          CD|
+-------------------------------------------------------------------------------------------------------+
|         221|           0|   -2.110844|    0.577869|    0.522437|    3.287229|    1.581568|    0.134533|
|         222|           0|   -2.112268|    0.574535|    0.517233|    3.284730|    1.594913|    0.135850|
|         223|           0|   -2.113379|    0.568385|    0.509428|    3.284002|    1.608926|    0.137063|
|         224|           0|   -2.114197|    0.559489|    0.499031|    3.285010|    1.623437|    0.138155|
|         225|           0|   -2.115354|    0.548080|    0.486162|    3.286812|    1.638264|    0.139113|
|         226|           0|   -2.117055|    0.534283|    0.470910|    3.288995|    1.653232|    0.139924|
|         227|           0|   -2.119389|    0.518169|    0.453380|    3.291244|    1.668159|    0.140578|
|         228|           0|   -2.122367|    0.499892|    0.433683|    3.293341|    1.682873|    0.141069|
|         229|           0|   -2.126059|    0.479606|    0.412144|    3.294971|    1.697201|    0.141388|
|         230|           0|   -2.130752|    0.457854|    0.389132|    3.295694|    1.710977|    0.141535|
+-----------------------------------------------------------------------+
|        File Writing Summary       |              Filename             |
+-----------------------------------------------------------------------+
|SU2 restart                        |solution_flow.dat                  |
|Paraview                           |flow.vtu                           |
|Paraview surface                   |surface_flow.vtu                   |
+-----------------------------------------------------------------------+

Writing the forces breakdown file (forces_breakdown.dat).
+-------------------------------------------------------------------------------------------------------+
|  Inner_Iter|   Time_Iter|    rms[Rho]|   rms[RhoU]|   rms[RhoV]|   rms[RhoE]|          CL|          CD|
+-------------------------------------------------------------------------------------------------------+
|         231|           0|   -2.136159|    0.435188|    0.365331|    3.295661|    1.724045|    0.141505|
|         232|           0|   -2.142246|    0.412439|    0.341567|    3.294721|    1.736257|    0.141302|
|         233|           0|   -2.148992|    0.390702|    0.318694|    3.292829|    1.747476|    0.140926|
|         234|           0|   -2.156600|    0.371260|    0.297878|    3.289568|    1.757585|    0.140384|
|         235|           0|   -2.165068|    0.355367|    0.280452|    3.284816|    1.766480|    0.139683|
|         236|           0|   -2.174291|    0.344142|    0.267607|    3.278626|    1.774074|    0.138831|
|         237|           0|   -2.183860|    0.338542|    0.259954|    3.271346|    1.780300|    0.137840|
|         238|           0|   -2.193630|    0.338467|    0.257856|    3.262958|    1.785112|    0.136724|
|         239|           0|   -2.203512|    0.343465|    0.260927|    3.253412|    1.788478|    0.135496|
|         240|           0|   -2.213607|    0.352328|    0.268356|    3.242533|    1.790390|    0.134172|
+-----------------------------------------------------------------------+
|        File Writing Summary       |              Filename             |
+-----------------------------------------------------------------------+
|SU2 restart                        |solution_flow.dat                  |
|Paraview                           |flow.vtu                           |
|Paraview surface                   |surface_flow.vtu                   |
+-----------------------------------------------------------------------+

Writing the forces breakdown file (forces_breakdown.dat).
+-------------------------------------------------------------------------------------------------------+
|  Inner_Iter|   Time_Iter|    rms[Rho]|   rms[RhoU]|   rms[RhoV]|   rms[RhoE]|          CL|          CD|
+-------------------------------------------------------------------------------------------------------+
|         241|           0|   -2.223466|    0.364102|    0.278944|    3.230799|    1.790853|    0.132769|
|         242|           0|   -2.233054|    0.377585|    0.291438|    3.218216|    1.789894|    0.131306|
|         243|           0|   -2.242197|    0.391601|    0.304732|    3.204958|    1.787556|    0.129802|
|         244|           0|   -2.250473|    0.405374|    0.317905|    3.191543|    1.783897|    0.128274|
|         245|           0|   -2.257808|    0.418268|    0.330285|    3.178220|    1.778997|    0.126743|
|         246|           0|   -2.264373|    0.429690|    0.341369|    3.165021|    1.772943|    0.125227|
|         247|           0|   -2.269996|    0.439286|    0.350825|    3.152387|    1.765840|    0.123746|
|         248|           0|   -2.274559|    0.446828|    0.358368|    3.140830|    1.757800|    0.122316|
|         249|           0|   -2.278130|    0.452159|    0.363793|    3.130667|    1.748947|    0.120957|
|         250|           0|   -2.280885|    0.455171|    0.366927|    3.122086|    1.739410|    0.119682|
+-----------------------------------------------------------------------+
|        File Writing Summary       |              Filename             |
+-----------------------------------------------------------------------+
|SU2 restart                        |solution_flow.dat                  |
|Paraview                           |flow.vtu                           |
|Paraview surface                   |surface_flow.vtu                   |
+-----------------------------------------------------------------------+

Writing the forces breakdown file (forces_breakdown.dat).
+-------------------------------------------------------------------------------------------------------+
|  Inner_Iter|   Time_Iter|    rms[Rho]|   rms[RhoU]|   rms[RhoV]|   rms[RhoE]|          CL|          CD|
+-------------------------------------------------------------------------------------------------------+
|         251|           0|   -2.282828|    0.455792|    0.367725|    3.115460|    1.729328|    0.118508|
|         252|           0|   -2.284600|    0.453966|    0.366199|    3.110318|    1.718839|    0.117448|
|         253|           0|   -2.285815|    0.449663|    0.362279|    3.107204|    1.708091|    0.116514|
|         254|           0|   -2.286768|    0.442881|    0.355980|    3.105786|    1.697226|    0.115717|
|         255|           0|   -2.287590|    0.433651|    0.347230|    3.105926|    1.686387|    0.115066|
|         256|           0|   -2.288374|    0.421982|    0.336115|    3.107431|    1.675715|    0.114567|
|         257|           0|   -2.289174|    0.407796|    0.322649|    3.110096|    1.665342|    0.114226|
|         258|           0|   -2.290554|    0.391240|    0.306936|    3.112983|    1.655395|    0.114047|
|         259|           0|   -2.292416|    0.372414|    0.289036|    3.116075|    1.645997|    0.114030|
|         260|           0|   -2.294952|    0.351503|    0.269195|    3.118921|    1.637267|    0.114176|
+-----------------------------------------------------------------------+
|        File Writing Summary       |              Filename             |
+-----------------------------------------------------------------------+
|SU2 restart                        |solution_flow.dat                  |
|Paraview                           |flow.vtu                           |
|Paraview surface                   |surface_flow.vtu                   |
+-----------------------------------------------------------------------+

Writing the forces breakdown file (forces_breakdown.dat).
+-------------------------------------------------------------------------------------------------------+
|  Inner_Iter|   Time_Iter|    rms[Rho]|   rms[RhoU]|   rms[RhoV]|   rms[RhoE]|          CL|          CD|
+-------------------------------------------------------------------------------------------------------+
|         261|           0|   -2.298278|    0.328733|    0.247715|    3.121182|    1.629303|    0.114483|
|         262|           0|   -2.302391|    0.304376|    0.224893|    3.122691|    1.622197|    0.114945|
|         263|           0|   -2.307379|    0.279039|    0.201330|    3.123208|    1.616027|    0.115558|
|         264|           0|   -2.313324|    0.253239|    0.177773|    3.122522|    1.610856|    0.116311|
|         265|           0|   -2.319951|    0.227730|    0.155309|    3.120761|    1.606737|    0.117197|
|         266|           0|   -2.327081|    0.203845|    0.135171|    3.118000|    1.603709|    0.118205|
|         267|           0|   -2.334661|    0.182810|    0.118504|    3.114185|    1.601798|    0.119323|
|         268|           0|   -2.342543|    0.165863|    0.106398|    3.109357|    1.601013|    0.120537|
|         269|           0|   -2.350448|    0.154140|    0.099583|    3.103659|    1.601353|    0.121834|
|         270|           0|   -2.358458|    0.148214|    0.098218|    3.096850|    1.602802|    0.123199|
+-----------------------------------------------------------------------+
|        File Writing Summary       |              Filename             |
+-----------------------------------------------------------------------+
|SU2 restart                        |solution_flow.dat                  |
|Paraview                           |flow.vtu                           |
|Paraview surface                   |surface_flow.vtu                   |
+-----------------------------------------------------------------------+

Writing the forces breakdown file (forces_breakdown.dat).
+-------------------------------------------------------------------------------------------------------+
|  Inner_Iter|   Time_Iter|    rms[Rho]|   rms[RhoU]|   rms[RhoV]|   rms[RhoE]|          CL|          CD|
+-------------------------------------------------------------------------------------------------------+
|         271|           0|   -2.366328|    0.147979|    0.101830|    3.089166|    1.605333|    0.124616|
|         272|           0|   -2.373929|    0.152806|    0.109564|    3.080720|    1.608902|    0.126068|
|         273|           0|   -2.381224|    0.161457|    0.120225|    3.071502|    1.613456|    0.127540|
|         274|           0|   -2.388034|    0.172616|    0.132636|    3.061698|    1.618930|    0.129014|
|         275|           0|   -2.394129|    0.185210|    0.145775|    3.051698|    1.625249|    0.130474|
|         276|           0|   -2.399370|    0.198319|    0.158795|    3.041796|    1.632332|    0.131904|
|         277|           0|   -2.403744|    0.211186|    0.171031|    3.032215|    1.640084|    0.133287|
|         278|           0|   -2.407238|    0.223147|    0.182075|    3.023207|    1.648407|    0.134607|
|         279|           0|   -2.410229|    0.233612|    0.191578|    3.014548|    1.657200|    0.135851|
|         280|           0|   -2.412725|    0.242247|    0.199234|    3.006534|    1.666352|    0.137003|
+-----------------------------------------------------------------------+
|        File Writing Summary       |              Filename             |
+-----------------------------------------------------------------------+
|SU2 restart                        |solution_flow.dat                  |
|Paraview                           |flow.vtu                           |
|Paraview surface                   |surface_flow.vtu                   |
+-----------------------------------------------------------------------+

Writing the forces breakdown file (forces_breakdown.dat).
+-------------------------------------------------------------------------------------------------------+
|  Inner_Iter|   Time_Iter|    rms[Rho]|   rms[RhoU]|   rms[RhoV]|   rms[RhoE]|          CL|          CD|
+-------------------------------------------------------------------------------------------------------+
|         281|           0|   -2.414791|    0.248858|    0.204934|    2.999365|    1.675754|    0.138051|
|         282|           0|   -2.416478|    0.253177|    0.208585|    2.993212|    1.685295|    0.138983|
|         283|           0|   -2.417924|    0.255249|    0.210168|    2.988175|    1.694865|    0.139790|
|         284|           0|   -2.419240|    0.255063|    0.209695|    2.984320|    1.704352|    0.140461|
|         285|           0|   -2.420695|    0.252725|    0.207160|    2.981411|    1.713650|    0.140991|
|         286|           0|   -2.422410|    0.248211|    0.202545|    2.979378|    1.722655|    0.141373|
|         287|           0|   -2.424473|    0.241593|    0.195884|    2.978079|    1.731267|    0.141603|
|         288|           0|   -2.426980|    0.232931|    0.187255|    2.977308|    1.739395|    0.141679|
|         289|           0|   -2.429999|    0.222356|    0.176843|    2.976921|    1.746956|    0.141602|
|         290|           0|   -2.433623|    0.210033|    0.164772|    2.976683|    1.753874|    0.141372|
+-----------------------------------------------------------------------+
|        File Writing Summary       |              Filename             |
+-----------------------------------------------------------------------+
|SU2 restart                        |solution_flow.dat                  |
|Paraview                           |flow.vtu                           |
|Paraview surface                   |surface_flow.vtu                   |
+-----------------------------------------------------------------------+

Writing the forces breakdown file (forces_breakdown.dat).
+-------------------------------------------------------------------------------------------------------+
|  Inner_Iter|   Time_Iter|    rms[Rho]|   rms[RhoU]|   rms[RhoV]|   rms[RhoE]|          CL|          CD|
+-------------------------------------------------------------------------------------------------------+
|         291|           0|   -2.437869|    0.196090|    0.151205|    2.976389|    1.760079|    0.140992|
|         292|           0|   -2.442809|    0.180783|    0.136332|    2.975827|    1.765519|    0.140469|
|         293|           0|   -2.448407|    0.164550|    0.120494|    2.974890|    1.770143|    0.139807|
|         294|           0|   -2.454625|    0.147697|    0.104093|    2.973437|    1.773918|    0.139015|
|         295|           0|   -2.461478|    0.130830|    0.087648|    2.971330|    1.776818|    0.138103|
|         296|           0|   -2.468917|    0.114625|    0.071569|    2.968514|    1.778830|    0.137082|
|         297|           0|   -2.476832|    0.099757|    0.056611|    2.964962|    1.779954|    0.135963|
|         298|           0|   -2.485170|    0.086983|    0.043401|    2.960580|    1.780200|    0.134761|
|         299|           0|   -2.493717|    0.076951|    0.032591|    2.955456|    1.779587|    0.133490|
|         300|           0|   -2.502434|    0.070198|    0.024647|    2.949497|    1.778144|    0.132165|
+-----------------------------------------------------------------------+
|        File Writing Summary       |              Filename             |
+-----------------------------------------------------------------------+
|SU2 restart                        |solution_flow.dat                  |
|Paraview                           |flow.vtu                           |
|Paraview surface                   |surface_flow.vtu                   |
+-----------------------------------------------------------------------+

Writing the forces breakdown file (forces_breakdown.dat).
+-------------------------------------------------------------------------------------------------------+
|  Inner_Iter|   Time_Iter|    rms[Rho]|   rms[RhoU]|   rms[RhoV]|   rms[RhoE]|          CL|          CD|
+-------------------------------------------------------------------------------------------------------+
|         301|           0|   -2.511327|    0.066993|    0.019735|    2.942595|    1.775912|    0.130801|
|         302|           0|   -2.520270|    0.067273|    0.017862|    2.934771|    1.772938|    0.129415|
|         303|           0|   -2.529156|    0.070702|    0.018868|    2.926075|    1.769278|    0.128022|
|         304|           0|   -2.537970|    0.076744|    0.022353|    2.916458|    1.764998|    0.126639|
|         305|           0|   -2.546616|    0.084649|    0.027771|    2.905969|    1.760166|    0.125283|
|         306|           0|   -2.554945|    0.093731|    0.034464|    2.894759|    1.754858|    0.123967|
|         307|           0|   -2.562953|    0.103243|    0.041788|    2.882859|    1.749154|    0.122709|
|         308|           0|   -2.570399|    0.112631|    0.049201|    2.870625|    1.743136|    0.121521|
|         309|           0|   -2.577151|    0.121307|    0.056210|    2.858318|    1.736892|    0.120417|
|         310|           0|   -2.583081|    0.128880|    0.062384|    2.846307|    1.730506|    0.119409|
+-----------------------------------------------------------------------+
|        File Writing Summary       |              Filename             |
+-----------------------------------------------------------------------+
|SU2 restart                        |solution_flow.dat                  |
|Paraview                           |flow.vtu                           |
|Paraview surface                   |surface_flow.vtu                   |
+-----------------------------------------------------------------------+

Writing the forces breakdown file (forces_breakdown.dat).
+-------------------------------------------------------------------------------------------------------+
|  Inner_Iter|   Time_Iter|    rms[Rho]|   rms[RhoU]|   rms[RhoV]|   rms[RhoE]|          CL|          CD|
+-------------------------------------------------------------------------------------------------------+
|         311|           0|   -2.588223|    0.135078|    0.067404|    2.834833|    1.724067|    0.118508|
|         312|           0|   -2.592639|    0.139688|    0.071056|    2.824108|    1.717658|    0.117723|
|         313|           0|   -2.596373|    0.142553|    0.073154|    2.814420|    1.711363|    0.117063|
|         314|           0|   -2.599470|    0.143501|    0.073561|    2.806037|    1.705261|    0.116535|
|         315|           0|   -2.602074|    0.142424|    0.072106|    2.799077|    1.699427|    0.116143|
|         316|           0|   -2.604255|    0.139235|    0.068695|    2.793692|    1.693933|    0.115890|
|         317|           0|   -2.606168|    0.134029|    0.063356|    2.789912|    1.688842|    0.115780|
|         318|           0|   -2.608002|    0.126729|    0.055993|    2.787555|    1.684215|    0.115812|
|         319|           0|   -2.609956|    0.117304|    0.046705|    2.786345|    1.680102|    0.115984|
|         320|           0|   -2.612133|    0.105747|    0.035514|    2.786080|    1.676550|    0.116293|
+-----------------------------------------------------------------------+
|        File Writing Summary       |              Filename             |
+-----------------------------------------------------------------------+
|SU2 restart                        |solution_flow.dat                  |
|Paraview                           |flow.vtu                           |
|Paraview surface                   |surface_flow.vtu                   |
+-----------------------------------------------------------------------+

Writing the forces breakdown file (forces_breakdown.dat).
+-------------------------------------------------------------------------------------------------------+
|  Inner_Iter|   Time_Iter|    rms[Rho]|   rms[RhoU]|   rms[RhoV]|   rms[RhoE]|          CL|          CD|
+-------------------------------------------------------------------------------------------------------+
|         321|           0|   -2.614679|    0.092082|    0.022494|    2.786465|    1.673594|    0.116734|
|         322|           0|   -2.617581|    0.076391|    0.007840|    2.787385|    1.671263|    0.117302|
|         323|           0|   -2.620965|    0.058772|   -0.008310|    2.788501|    1.669578|    0.117989|
|         324|           0|   -2.624915|    0.039414|   -0.025728|    2.789537|    1.668550|    0.118786|
|         325|           0|   -2.629477|    0.018491|   -0.044092|    2.790232|    1.668185|    0.119683|
|         326|           0|   -2.634664|   -0.003663|   -0.062996|    2.790378|    1.668476|    0.120670|
|         327|           0|   -2.640340|   -0.026681|   -0.081840|    2.789962|    1.669414|    0.121734|
|         328|           0|   -2.646465|   -0.050042|   -0.099908|    2.788859|    1.670977|    0.122862|
|         329|           0|   -2.652995|   -0.073066|   -0.116472|    2.786980|    1.673142|    0.124042|
|         330|           0|   -2.659928|   -0.094907|   -0.130813|    2.784193|    1.675873|    0.125261|
+-----------------------------------------------------------------------+
|        File Writing Summary       |              Filename             |
+-----------------------------------------------------------------------+
|SU2 restart                        |solution_flow.dat                  |
|Paraview                           |flow.vtu                           |
|Paraview surface                   |surface_flow.vtu                   |
+-----------------------------------------------------------------------+

Writing the forces breakdown file (forces_breakdown.dat).
+-------------------------------------------------------------------------------------------------------+
|  Inner_Iter|   Time_Iter|    rms[Rho]|   rms[RhoU]|   rms[RhoV]|   rms[RhoE]|          CL|          CD|
+-------------------------------------------------------------------------------------------------------+
|         331|           0|   -2.667168|   -0.114592|   -0.142161|    2.780469|    1.679134|    0.126504|
|         332|           0|   -2.674558|   -0.131112|   -0.149927|    2.775861|    1.682879|    0.127757|
|         333|           0|   -2.681982|   -0.143717|   -0.153860|    2.770359|    1.687061|    0.129008|
|         334|           0|   -2.689442|   -0.151866|   -0.154040|    2.763890|    1.691623|    0.130241|
|         335|           0|   -2.696804|   -0.155414|   -0.150853|    2.756547|    1.696511|    0.131444|
|         336|           0|   -2.704028|   -0.154580|   -0.144973|    2.748399|    1.701666|    0.132603|
|         337|           0|   -2.710967|   -0.150006|   -0.137115|    2.739602|    1.707027|    0.133707|
|         338|           0|   -2.717556|   -0.142614|   -0.128043|    2.730258|    1.712531|    0.134744|
|         339|           0|   -2.723732|   -0.133464|   -0.118455|    2.720479|    1.718118|    0.135704|
|         340|           0|   -2.729440|   -0.123406|   -0.108959|    2.710487|    1.723725|    0.136577|
+-----------------------------------------------------------------------+
|        File Writing Summary       |              Filename             |
+-----------------------------------------------------------------------+
|SU2 restart                        |solution_flow.dat                  |
|Paraview                           |flow.vtu                           |
|Paraview surface                   |surface_flow.vtu                   |
+-----------------------------------------------------------------------+

Writing the forces breakdown file (forces_breakdown.dat).
+-------------------------------------------------------------------------------------------------------+
|  Inner_Iter|   Time_Iter|    rms[Rho]|   rms[RhoU]|   rms[RhoV]|   rms[RhoE]|          CL|          CD|
+-------------------------------------------------------------------------------------------------------+
|         341|           0|   -2.734649|   -0.113254|   -0.100013|    2.700445|    1.729291|    0.137355|
|         342|           0|   -2.739442|   -0.103649|   -0.091988|    2.690508|    1.734758|    0.138030|
|         343|           0|   -2.743889|   -0.095114|   -0.085179|    2.680791|    1.740068|    0.138597|
|         344|           0|   -2.748027|   -0.087943|   -0.079785|    2.671476|    1.745170|    0.139050|
|         345|           0|   -2.751793|   -0.082373|   -0.075925|    2.662894|    1.750011|    0.139387|
|         346|           0|   -2.755227|   -0.078582|   -0.073697|    2.655251|    1.754547|    0.139605|
|         347|           0|   -2.757337|   -0.073285|   -0.072969|    2.650906|    1.758736|    0.139703|
|         348|           0|   -2.756259|   -0.059974|   -0.072713|    2.654428|    1.762542|    0.139682|
|         349|           0|   -2.761487|   -0.062274|   -0.075547|    2.646575|    1.765934|    0.139543|
|         350|           0|   -2.763685|   -0.058148|   -0.079174|    2.646059|    1.768888|    0.139292|
[...]
|         905|           0|   -5.092067|   -2.064070|   -1.914574|    0.321864|    1.802127|    0.131282|
|         906|           0|   -5.092987|   -2.069992|   -1.918012|    0.322863|    1.802139|    0.131285|
|         907|           0|   -5.092650|   -2.076281|   -1.921506|    0.326826|    1.802151|    0.131289|
|         908|           0|   -5.095104|   -2.083068|   -1.925108|    0.327214|    1.802165|    0.131292|
|         909|           0|   -5.099777|   -2.090257|   -1.928853|    0.325460|    1.802178|    0.131296|
|         910|           0|   -5.102339|   -2.097644|   -1.932545|    0.327027|    1.802193|    0.131299|
+-----------------------------------------------------------------------+
|        File Writing Summary       |              Filename             |
+-----------------------------------------------------------------------+
|SU2 restart                        |solution_flow.dat                  |
|Paraview                           |flow.vtu                           |
|Paraview surface                   |surface_flow.vtu                   |
+-----------------------------------------------------------------------+

Writing the forces breakdown file (forces_breakdown.dat).
+-------------------------------------------------------------------------------------------------------+
|  Inner_Iter|   Time_Iter|    rms[Rho]|   rms[RhoU]|   rms[RhoV]|   rms[RhoE]|          CL|          CD|
+-------------------------------------------------------------------------------------------------------+
|         911|           0|   -5.105073|   -2.105128|   -1.936262|    0.329024|    1.802208|    0.131303|
|         912|           0|   -5.108122|   -2.112639|   -1.939924|    0.330565|    1.802224|    0.131306|
|         913|           0|   -5.112331|   -2.120083|   -1.943619|    0.331303|    1.802239|    0.131309|
|         914|           0|   -5.118181|   -2.127386|   -1.947292|    0.329969|    1.802256|    0.131312|
|         915|           0|   -5.121304|   -2.134377|   -1.950809|    0.331840|    1.802272|    0.131315|
|         916|           0|   -5.126335|   -2.141056|   -1.954263|    0.330955|    1.802289|    0.131318|
|         917|           0|   -5.129987|   -2.147290|   -1.957566|    0.331356|    1.802305|    0.131321|
|         918|           0|   -5.135596|   -2.153073|   -1.960819|    0.329098|    1.802322|    0.131323|
|         919|           0|   -5.142266|   -2.158302|   -1.964037|    0.325601|    1.802338|    0.131325|
|         920|           0|   -5.146976|   -2.162940|   -1.967018|    0.323068|    1.802355|    0.131327|
+-----------------------------------------------------------------------+
|        File Writing Summary       |              Filename             |
+-----------------------------------------------------------------------+
|SU2 restart                        |solution_flow.dat                  |
|Paraview                           |flow.vtu                           |
|Paraview surface                   |surface_flow.vtu                   |
+-----------------------------------------------------------------------+

Writing the forces breakdown file (forces_breakdown.dat).
+-------------------------------------------------------------------------------------------------------+
|  Inner_Iter|   Time_Iter|    rms[Rho]|   rms[RhoU]|   rms[RhoV]|   rms[RhoE]|          CL|          CD|
+-------------------------------------------------------------------------------------------------------+
|         921|           0|   -5.151419|   -2.166963|   -1.969918|    0.320477|    1.802371|    0.131328|
|         922|           0|   -5.155360|   -2.170397|   -1.972669|    0.317472|    1.802387|    0.131329|
|         923|           0|   -5.159597|   -2.173263|   -1.975376|    0.313798|    1.802402|    0.131330|
|         924|           0|   -5.167709|   -2.175647|   -1.978124|    0.305394|    1.802417|    0.131331|
|         925|           0|   -5.170783|   -2.177519|   -1.980676|    0.301875|    1.802431|    0.131331|
|         926|           0|   -5.175172|   -2.179042|   -1.983215|    0.296112|    1.802445|    0.131331|
|         927|           0|   -5.176666|   -2.180224|   -1.985684|    0.293281|    1.802459|    0.131330|
|         928|           0|   -5.180852|   -2.181244|   -1.988216|    0.287047|    1.802472|    0.131330|
|         929|           0|   -5.185649|   -2.182118|   -1.990823|    0.280306|    1.802483|    0.131329|
|         930|           0|   -5.188226|   -2.182934|   -1.993382|    0.275502|    1.802495|    0.131328|
+-----------------------------------------------------------------------+
|        File Writing Summary       |              Filename             |
+-----------------------------------------------------------------------+
|SU2 restart                        |solution_flow.dat                  |
|Paraview                           |flow.vtu                           |
|Paraview surface                   |surface_flow.vtu                   |
+-----------------------------------------------------------------------+

Writing the forces breakdown file (forces_breakdown.dat).
+-------------------------------------------------------------------------------------------------------+
|  Inner_Iter|   Time_Iter|    rms[Rho]|   rms[RhoU]|   rms[RhoV]|   rms[RhoE]|          CL|          CD|
+-------------------------------------------------------------------------------------------------------+
|         931|           0|   -5.189572|   -2.183745|   -1.996004|    0.272481|    1.802506|    0.131327|
|         932|           0|   -5.189865|   -2.184644|   -1.998611|    0.270174|    1.802516|    0.131325|
|         933|           0|   -5.191370|   -2.185679|   -2.001381|    0.267377|    1.802525|    0.131324|
|         934|           0|   -5.196823|   -2.186914|   -2.004371|    0.260562|    1.802534|    0.131322|
|         935|           0|   -5.196779|   -2.188290|   -2.007282|    0.260285|    1.802542|    0.131320|
|         936|           0|   -5.199245|   -2.189922|   -2.010345|    0.257334|    1.802549|    0.131318|
|         937|           0|   -5.199776|   -2.191736|   -2.013456|    0.257419|    1.802556|    0.131316|
|         938|           0|   -5.202664|   -2.193803|   -2.016705|    0.255097|    1.802562|    0.131314|
|         939|           0|   -5.208021|   -2.196059|   -2.020157|    0.251101|    1.802567|    0.131311|
|         940|           0|   -5.211462|   -2.198483|   -2.023548|    0.248988|    1.802572|    0.131309|
+-----------------------------------------------------------------------+
|        File Writing Summary       |              Filename             |
+-----------------------------------------------------------------------+
|SU2 restart                        |solution_flow.dat                  |
|Paraview                           |flow.vtu                           |
|Paraview surface                   |surface_flow.vtu                   |
+-----------------------------------------------------------------------+

Writing the forces breakdown file (forces_breakdown.dat).
+-------------------------------------------------------------------------------------------------------+
|  Inner_Iter|   Time_Iter|    rms[Rho]|   rms[RhoU]|   rms[RhoV]|   rms[RhoE]|          CL|          CD|
+-------------------------------------------------------------------------------------------------------+
|         941|           0|   -5.214833|   -2.201026|   -2.027022|    0.247717|    1.802576|    0.131307|
|         942|           0|   -5.217337|   -2.203665|   -2.030471|    0.247331|    1.802580|    0.131305|
|         943|           0|   -5.221587|   -2.206354|   -2.034045|    0.245789|    1.802583|    0.131303|
|         944|           0|   -5.229124|   -2.209096|   -2.037679|    0.240479|    1.802586|    0.131301|
|         945|           0|   -5.232529|   -2.211740|   -2.041183|    0.239780|    1.802588|    0.131298|
|         946|           0|   -5.237748|   -2.214303|   -2.044689|    0.236888|    1.802591|    0.131297|
|         947|           0|   -5.240590|   -2.216854|   -2.048088|    0.236219|    1.802593|    0.131295|
|         948|           0|   -5.247253|   -2.219344|   -2.051525|    0.231136|    1.802595|    0.131293|
|         949|           0|   -5.256227|   -2.221671|   -2.055014|    0.224126|    1.802597|    0.131292|
|         950|           0|   -5.261492|   -2.223811|   -2.058243|    0.219640|    1.802599|    0.131291|
+-----------------------------------------------------------------------+
|        File Writing Summary       |              Filename             |
+-----------------------------------------------------------------------+
|SU2 restart                        |solution_flow.dat                  |
|Paraview                           |flow.vtu                           |
|Paraview surface                   |surface_flow.vtu                   |
+-----------------------------------------------------------------------+

Writing the forces breakdown file (forces_breakdown.dat).
+-------------------------------------------------------------------------------------------------------+
|  Inner_Iter|   Time_Iter|    rms[Rho]|   rms[RhoU]|   rms[RhoV]|   rms[RhoE]|          CL|          CD|
+-------------------------------------------------------------------------------------------------------+
|         951|           0|   -5.265685|   -2.225748|   -2.061433|    0.216293|    1.802601|    0.131290|
|         952|           0|   -5.269757|   -2.227548|   -2.064469|    0.211907|    1.802603|    0.131289|
|         953|           0|   -5.275078|   -2.229249|   -2.067489|    0.206117|    1.802605|    0.131289|
|         954|           0|   -5.286414|   -2.230851|   -2.070594|    0.193596|    1.802608|    0.131288|
|         955|           0|   -5.289485|   -2.232314|   -2.073421|    0.188929|    1.802610|    0.131288|
|         956|           0|   -5.294979|   -2.233808|   -2.076219|    0.180549|    1.802614|    0.131288|
|         957|           0|   -5.296628|   -2.235281|   -2.078887|    0.175947|    1.802617|    0.131288|
|         958|           0|   -5.302057|   -2.236863|   -2.081609|    0.166717|    1.802621|    0.131289|
|         959|           0|   -5.308705|   -2.238532|   -2.084384|    0.156105|    1.802626|    0.131289|
|         960|           0|   -5.311955|   -2.240342|   -2.087003|    0.147930|    1.802631|    0.131290|
+-----------------------------------------------------------------------+
|        File Writing Summary       |              Filename             |
+-----------------------------------------------------------------------+
|SU2 restart                        |solution_flow.dat                  |
|Paraview                           |flow.vtu                           |
|Paraview surface                   |surface_flow.vtu                   |
+-----------------------------------------------------------------------+

Writing the forces breakdown file (forces_breakdown.dat).
+-------------------------------------------------------------------------------------------------------+
|  Inner_Iter|   Time_Iter|    rms[Rho]|   rms[RhoU]|   rms[RhoV]|   rms[RhoE]|          CL|          CD|
+-------------------------------------------------------------------------------------------------------+
|         961|           0|   -5.312849|   -2.242297|   -2.089630|    0.143027|    1.802635|    0.131291|
|         962|           0|   -5.310485|   -2.244464|   -2.092132|    0.141047|    1.802641|    0.131292|
|         963|           0|   -5.311121|   -2.246921|   -2.094793|    0.136566|    1.802647|    0.131294|
|         964|           0|   -5.319331|   -2.249725|   -2.097696|    0.123284|    1.802654|    0.131295|
|         965|           0|   -5.317746|   -2.252776|   -2.100386|    0.122054|    1.802660|    0.131297|
|         966|           0|   -5.318573|   -2.256205|   -2.103204|    0.118165|    1.802668|    0.131299|
|         967|           0|   -5.315515|   -2.259949|   -2.106016|    0.120334|    1.802675|    0.131300|
|         968|           0|   -5.317358|   -2.264130|   -2.108965|    0.116316|    1.802683|    0.131302|
|         969|           0|   -5.323542|   -2.268678|   -2.112187|    0.108793|    1.802690|    0.131304|
|         970|           0|   -5.324233|   -2.273551|   -2.115275|    0.108245|    1.802699|    0.131306|
+-----------------------------------------------------------------------+
|        File Writing Summary       |              Filename             |
+-----------------------------------------------------------------------+
|SU2 restart                        |solution_flow.dat                  |
|Paraview                           |flow.vtu                           |
|Paraview surface                   |surface_flow.vtu                   |
+-----------------------------------------------------------------------+

Writing the forces breakdown file (forces_breakdown.dat).
+-------------------------------------------------------------------------------------------------------+
|  Inner_Iter|   Time_Iter|    rms[Rho]|   rms[RhoU]|   rms[RhoV]|   rms[RhoE]|          CL|          CD|
+-------------------------------------------------------------------------------------------------------+
|         971|           0|   -5.323956|   -2.278747|   -2.118454|    0.110075|    1.802707|    0.131308|
|         972|           0|   -5.323760|   -2.284280|   -2.121608|    0.111552|    1.802716|    0.131310|
|         973|           0|   -5.325997|   -2.290084|   -2.124959|    0.111858|    1.802724|    0.131312|
|         974|           0|   -5.332110|   -2.296159|   -2.128429|    0.107596|    1.802734|    0.131314|
|         975|           0|   -5.331400|   -2.302357|   -2.131749|    0.112187|    1.802743|    0.131315|
|         976|           0|   -5.334114|   -2.308745|   -2.135138|    0.112456|    1.802752|    0.131317|
|         977|           0|   -5.332791|   -2.315135|   -2.138414|    0.117975|    1.802761|    0.131319|
|         978|           0|   -5.335721|   -2.321582|   -2.141805|    0.118622|    1.802771|    0.131321|
|         979|           0|   -5.342284|   -2.327953|   -2.145370|    0.116237|    1.802780|    0.131322|
|         980|           0|   -5.345429|   -2.334187|   -2.148644|    0.116033|    1.802790|    0.131324|
+-----------------------------------------------------------------------+
|        File Writing Summary       |              Filename             |
+-----------------------------------------------------------------------+
|SU2 restart                        |solution_flow.dat                  |
|Paraview                           |flow.vtu                           |
|Paraview surface                   |surface_flow.vtu                   |
+-----------------------------------------------------------------------+

Writing the forces breakdown file (forces_breakdown.dat).
+-------------------------------------------------------------------------------------------------------+
|  Inner_Iter|   Time_Iter|    rms[Rho]|   rms[RhoU]|   rms[RhoV]|   rms[RhoE]|          CL|          CD|
+-------------------------------------------------------------------------------------------------------+
|         981|           0|   -5.347285|   -2.340164|   -2.151925|    0.118089|    1.802799|    0.131325|
|         982|           0|   -5.347935|   -2.345856|   -2.155040|    0.120474|    1.802809|    0.131326|
|         983|           0|   -5.350424|   -2.351209|   -2.158243|    0.121456|    1.802817|    0.131327|
|         984|           0|   -5.362218|   -2.356256|   -2.161583|    0.111940|    1.802827|    0.131328|
|         985|           0|   -5.363964|   -2.360752|   -2.164562|    0.112694|    1.802835|    0.131329|
|         986|           0|   -5.368912|   -2.364819|   -2.167547|    0.109357|    1.802844|    0.131329|
|         987|           0|   -5.366411|   -2.368260|   -2.170288|    0.113581|    1.802852|    0.131330|
|         988|           0|   -5.371711|   -2.371556|   -2.173119|    0.108431|    1.802860|    0.131330|
|         989|           0|   -5.380350|   -2.374426|   -2.176096|    0.100620|    1.802867|    0.131330|
|         990|           0|   -5.381969|   -2.376827|   -2.178782|    0.098764|    1.802875|    0.131330|
+-----------------------------------------------------------------------+
|        File Writing Summary       |              Filename             |
+-----------------------------------------------------------------------+
|SU2 restart                        |solution_flow.dat                  |
|Paraview                           |flow.vtu                           |
|Paraview surface                   |surface_flow.vtu                   |
+-----------------------------------------------------------------------+

Writing the forces breakdown file (forces_breakdown.dat).
+-------------------------------------------------------------------------------------------------------+
|  Inner_Iter|   Time_Iter|    rms[Rho]|   rms[RhoU]|   rms[RhoV]|   rms[RhoE]|          CL|          CD|
+-------------------------------------------------------------------------------------------------------+
|         991|           0|   -5.381793|   -2.378818|   -2.181461|    0.098948|    1.802882|    0.131330|
|         992|           0|   -5.382191|   -2.380573|   -2.184007|    0.096907|    1.802889|    0.131330|
|         993|           0|   -5.384568|   -2.382056|   -2.186714|    0.093853|    1.802895|    0.131329|
|         994|           0|   -5.394319|   -2.383356|   -2.189697|    0.083437|    1.802901|    0.131329|
|         995|           0|   -5.392516|   -2.384447|   -2.192337|    0.084268|    1.802907|    0.131328|
|         996|           0|   -5.396453|   -2.385641|   -2.195141|    0.078455|    1.802913|    0.131327|
|         997|           0|   -5.393139|   -2.386782|   -2.197848|    0.080970|    1.802918|    0.131326|
|         998|           0|   -5.395563|   -2.388104|   -2.200752|    0.077237|    1.802923|    0.131325|
|         999|           0|   -5.402566|   -2.389534|   -2.203966|    0.070007|    1.802928|    0.131324|

----------------------------- Solver Exit -------------------------------

Maximum number of iterations reached (ITER = 1000) before convergence.
+-----------------------------------------------------------------------+
|      Convergence Field     |     Value    |   Criterion  |  Converged |
+-----------------------------------------------------------------------+
|                  Cauchy[CD]|   1.19305e-05|       < 1e-10|          No|
+-----------------------------------------------------------------------+
-------------------------------------------------------------------------
+-----------------------------------------------------------------------+
|        File Writing Summary       |              Filename             |
+-----------------------------------------------------------------------+
|SU2 restart                        |solution_flow.dat                  |
|Paraview                           |flow.vtu                           |
|Paraview surface                   |surface_flow.vtu                   |
+-----------------------------------------------------------------------+

Writing the forces breakdown file (forces_breakdown.dat).

------------------------- Solver Postprocessing -------------------------
Deleted CNumerics container.
Deleted CIntegration container.
Deleted CSolver container.
Deleted CIteration container.
Deleted CInterpolator container.
Deleted CInterface container.
Deleted CGeometry container.
Deleted CFreeFormDefBox class.
Deleted CSurfaceMovement class.
Deleted CVolumetricMovement class.
Deleted CConfig container.
Deleted nInst container.
Deleted COutput class.
-------------------------------------------------------------------------

------------------------- Exit Success (SU2_CFD) ------------------------

