
-------------------------------------------------------------------------
|    ___ _   _ ___                                                      |
|   / __| | | |_  )   Release 7.0.3 "Blackbird"                         |
|   \__ \ |_| |/ /                                                      |
|   |___/\___//___|   Suite (Computational Fluid Dynamics Code)         |
|                                                                       |
-------------------------------------------------------------------------
| SU2 Project Website: https://su2code.github.io                        |
|                                                                       |
| The SU2 Project is maintained by the SU2 Foundation                   |
| (http://su2foundation.org)                                            |
-------------------------------------------------------------------------
| Copyright 2012-2020, SU2 Contributors                                 |
|                                                                       |
| SU2 is free software; you can redistribute it and/or                  |
| modify it under the terms of the GNU Lesser General Public            |
| License as published by the Free Software Foundation; either          |
| version 2.1 of the License, or (at your option) any later version.    |
|                                                                       |
| SU2 is distributed in the hope that it will be useful,                |
| but WITHOUT ANY WARRANTY; without even the implied warranty of        |
| MERCHANTABILITY or FITNESS FOR A PARTICULAR PURPOSE. See the GNU      |
| Lesser General Public License for more details.                       |
|                                                                       |
| You should have received a copy of the GNU Lesser General Public      |
| License along with SU2. If not, see <http://www.gnu.org/licenses/>.   |
-------------------------------------------------------------------------

Parsing config file for zone 0

----------------- Physical Case Definition ( Zone 0 ) -------------------
Compressible Euler equations.
Mach number: 0.21.
Angle of attack (AoA): 2 deg, and angle of sideslip (AoS): 0 deg.
No restart solution, use the values at infinity (freestream).
Dimensional simulation.
The reference area is 55.7983 m^2.
The semi-span will be computed using the max y(3D) value.
The reference length is 1.8008 m.
Surface(s) where the force coefficients are evaluated and 
their reference origin for moment computation: 
   - VTP (9.6115, 0, 2.5277).
   - Fuselage (9.6115, 0, 2.5277).
   - HTP (9.6115, 0, 2.5277).
   - Wing (9.6115, 0, 2.5277) m.
Surface(s) where the objective function is evaluated: airfoil.
Surface(s) plotted in the output file: VTP, Fuselage, HTP, Wing.
Surface(s) to be analyzed in detail: airfoil.
Surface(s) affected by the design variables: VTP, Fuselage, HTP, Wing.
Input mesh file name: deformed.su2

--------------- Space Numerical Integration ( Zone 0 ) ------------------
Roe (with entropy fix = 0) solver for the flow inviscid terms.
Roe with DDES's FD low-dissipation function.
Second order integration in space, with slope limiter.
Venkatakrishnan slope-limiting method, with constant: 0.05. 
The reference element size is: 1. 
Gradient for upwind reconstruction: Green-Gauss.
Gradient for viscous and source terms: Green-Gauss.

--------------- Time Numerical Integration  ( Zone 0 ) ------------------
Local time stepping (steady state simulation).
Euler implicit method for the flow equations.
FGMRES is used for solving the linear system.
Using a ILU(0) preconditioning.
Convergence criteria of the linear solver: 1e-06.
Max number of linear iterations: 5.
V Multigrid Cycle, with 3 multigrid levels.
Damping factor for the residual restriction: 0.75.
Damping factor for the correction prolongation: 0.75.
No CFL adaptation.
+-------------------------------------------+
|  MG Level| Presmooth|PostSmooth|CorrectSmo|
+-------------------------------------------+
|         0|         1|         0|         0|
|         1|         2|         0|         0|
|         2|         3|         0|         0|
|         3|         3|         0|         0|
+-------------------------------------------+
Courant-Friedrichs-Lewy number:        1

------------------ Convergence Criteria  ( Zone 0 ) ---------------------
Maximum number of solver subiterations: 500.
Begin convergence monitoring at iteration 10.
Residual minimum value: 1e-8.
Cauchy series min. value: 1e-10.
Number of Cauchy elements: 100.
Begin windowed time average at iteration 15.

-------------------- Output Information ( Zone 0 ) ----------------------
Writing solution files every 10 iterations.
Writing the convergence history file every 1 inner iterations.
Writing the screen convergence history every 1 inner iterations.
The tabular file format is Tecplot (.dat).
Convergence history file name: history.
Forces breakdown file name: forces_breakdown.dat.
Surface file name: surface_flow.
Volume file name: flow.
Restart file name: solution_flow.dat.

------------- Config File Boundary Information ( Zone 0 ) ---------------
+-----------------------------------------------------------------------+
|                        Marker Type|                        Marker Name|
+-----------------------------------------------------------------------+
|                         Euler wall|                                VTP|
|                                   |                           Fuselage|
|                                   |                                HTP|
|                                   |                               Wing|
+-----------------------------------------------------------------------+
|                          Far-field|                           Farfield|
+-----------------------------------------------------------------------+
|                     Symmetry plane|                                  0|
+-----------------------------------------------------------------------+
|           Deformable mesh boundary|                            airfoil|
+-----------------------------------------------------------------------+

-------------------- Output Preprocessing ( Zone 0 ) --------------------
Screen output fields: INNER_ITER, TIME_ITER, RMS_DENSITY, RMS_MOMENTUM-X, RMS_MOMENTUM-Y, RMS_ENERGY, LIFT, DRAG
  Info: Ignoring the following history output groups:
  TIME_ITER
History output group(s): ITER, RMS_RES, AERO_COEFF
Warning: No (valid) fields chosen for convergence monitoring. Convergence monitoring inactive.
Warning: No (valid) fields chosen for time convergence monitoring. Time convergence monitoring inactive.
Volume output fields: COORDINATES, SOLUTION, PRIMITIVE

------------------- Geometry Preprocessing ( Zone 0 ) -------------------
Three dimensional problem.
134403 grid points before partitioning.
750945 volume elements before partitioning.
5 surface markers.
2298 boundary elements in index 0 (Marker = VTP).
6838 boundary elements in index 1 (Marker = Fuselage).
9046 boundary elements in index 2 (Marker = HTP).
42568 boundary elements in index 3 (Marker = Wing).
1280 boundary elements in index 4 (Marker = Farfield).
Executing the partitioning functions.
Building the graph adjacency structure.
Calling ParMETIS... graph partitioning complete (14371 edge cuts).
Distributing ParMETIS coloring.
Rebalancing vertices.
Rebalancing volume element connectivity.
Rebalancing markers and surface elements.
142496 vertices including ghost points. 
772621 interior elements including halo cells. 
772621 tetrahedra.
Establishing MPI communication patterns.
Setting point connectivity.
Renumbering points (Reverse Cuthill McKee Ordering).
Recomputing point connectivity.
Setting element connectivity.
Checking the numerical grid orientation.
Identifying edges and vertices.
Computing centers of gravity.
Setting the control volume structure.
Volume of the computational grid: 5.51666e+06.
Searching for the closest normal neighbors to the surfaces.
Storing a mapping from global to local point index.
Compute the surface curvature.
Max K: 877.737. Mean K: 41.5068. Standard deviation K: 83.6742.
Checking for periodicity.
Computing mesh quality statistics for the dual control volumes.
+--------------------------------------------------------------+
|           Mesh Quality Metric|        Minimum|        Maximum|
+--------------------------------------------------------------+
|    Orthogonality Angle (deg.)|        34.2938|        84.7057|
|     CV Face Area Aspect Ratio|        1.24029|        323.716|
|           CV Sub-Volume Ratio|        1.03419|        2951.69|
+--------------------------------------------------------------+
Setting the multigrid structure.
+-------------------------------------------+
|  MG Level|       CVs|Aggl. Rate|       CFL|
+-------------------------------------------+
|         0|    142496|    1/1.00|         1|
|         1|     25276|    1/5.64|  0.842804|
|         2|      5944|    1/4.25|  0.780323|
Finding max control volume width.
Communicating number of neighbors.
Semi-span length = 16.1739 m.
Wetted area = 186.302 m^2.
Area projection in the x-plane = 11.7672 m^2, y-plane = 22.9476 m^2, z-plane = 75.0475 m^2.
Max. coordinate in the x-direction = 16.6514 m, y-direction = 16.1739 m, z-direction = 5.46408 m.
Min. coordinate in the x-direction = 2.49923 m, y-direction = -16.174 m, z-direction = 2.25513 m.
Checking if Euler & Symmetry markers are straight/plane:
Boundary marker VTP is NOT a single plane.
Boundary marker Fuselage is NOT a single plane.
Boundary marker HTP is NOT a single plane.
Boundary marker Wing is NOT a single plane.
Boundary marker 0 is a single plane.

-------------------- Solver Preprocessing ( Zone 0 ) --------------------
Inviscid flow: Computing density based on free-stream
temperature and pressure using the ideal gas law.
Force coefficients computed using free-stream values.

-- Models:
+------------------------------------------------------------------------------+
|          Viscosity Model|        Conductivity Model|              Fluid Model|
+------------------------------------------------------------------------------+
|                        -|                         -|             STANDARD_AIR|
+------------------------------------------------------------------------------+
-- Fluid properties:
+------------------------------------------------------------------------------+
|                  Name|    Dim. value|    Ref. value|      Unit|Non-dim. value|
+------------------------------------------------------------------------------+
|          Gas Constant|       287.058|             1|  N.m/kg.K|       287.058|
|      Spec. Heat Ratio|             -|             -|         -|           1.4|
+------------------------------------------------------------------------------+
-- Initial and free-stream conditions:
+------------------------------------------------------------------------------+
|                  Name|    Dim. value|    Ref. value|      Unit|Non-dim. value|
+------------------------------------------------------------------------------+
|       Static Pressure|        101325|             1|        Pa|        101325|
|               Density|       1.22498|             1|    kg/m^3|       1.22498|
|           Temperature|        288.15|             1|         K|        288.15|
|          Total Energy|        209343|             1|   m^2/s^2|        209343|
|            Velocity-X|       71.4188|             1|       m/s|       71.4188|
|            Velocity-Y|             0|             1|       m/s|             0|
|            Velocity-Z|         2.494|             1|       m/s|         2.494|
|    Velocity Magnitude|       71.4624|             1|       m/s|       71.4624|
+------------------------------------------------------------------------------+
|           Mach Number|             -|             -|         -|          0.21|
+------------------------------------------------------------------------------+
Initialize Jacobian structure (Euler). MG level: 0.
Initialize Jacobian structure (Euler). MG level: 1.
Initialize Jacobian structure (Euler). MG level: 2.

------------------- Numerics Preprocessing ( Zone 0 ) -------------------

----------------- Integration Preprocessing ( Zone 0 ) ------------------

------------------- Iteration Preprocessing ( Zone 0 ) ------------------
Euler/Navier-Stokes/RANS fluid iteration.

------------------------------ Begin Solver -----------------------------

Simulation Run using the Single-zone Driver
+-------------------------------------------------------------------------------------------------------+
|  Inner_Iter|   Time_Iter|    rms[Rho]|   rms[RhoU]|   rms[RhoV]|   rms[RhoE]|          CL|          CD|
+-------------------------------------------------------------------------------------------------------+
|           0|           0|   -1.288077|    0.816086|    0.875355|    4.177393|    0.189094|    0.417990|
|           1|           0|   -1.401307|    0.734986|    0.785413|    4.064900|    0.330414|    0.708828|
|           2|           0|   -1.433857|    0.788925|    0.794075|    4.032918|    0.429759|    0.889435|
|           3|           0|   -1.420324|    0.877117|    0.846270|    4.046557|    0.495573|    0.979543|
|           4|           0|   -1.398643|    0.957685|    0.900754|    4.068169|    0.536155|    0.998278|
|           5|           0|   -1.381724|    1.026770|    0.947341|    4.084966|    0.559009|    0.963450|
|           6|           0|   -1.369740|    1.086351|    0.986105|    4.096715|    0.570294|    0.890806|
|           7|           0|   -1.359449|    1.138420|    1.018845|    4.106559|    0.574396|    0.793639|
|           8|           0|   -1.348083|    1.184241|    1.047474|    4.117225|    0.574392|    0.682871|
|           9|           0|   -1.334400|    1.224758|    1.073373|    4.129980|    0.572281|    0.567204|
|          10|           0|   -1.318775|    1.260751|    1.097720|    4.144523|    0.569123|    0.453176|
+-----------------------------------------------------------------------+
|        File Writing Summary       |              Filename             |
+-----------------------------------------------------------------------+
|SU2 restart                        |solution_flow.dat                  |
|Paraview                           |flow.vtu                           |
|Paraview surface                   |surface_flow.vtu                   |
+-----------------------------------------------------------------------+

Writing the forces breakdown file (forces_breakdown.dat).
+-------------------------------------------------------------------------------------------------------+
|  Inner_Iter|   Time_Iter|    rms[Rho]|   rms[RhoU]|   rms[RhoV]|   rms[RhoE]|          CL|          CD|
+-------------------------------------------------------------------------------------------------------+
|          11|           0|   -1.302374|    1.292830|    1.121396|    4.159760|    0.565364|    0.345386|
|          12|           0|   -1.286707|    1.321476|    1.144829|    4.174240|    0.560969|    0.246837|
|          13|           0|   -1.272917|    1.346895|    1.168015|    4.186866|    0.555738|    0.159248|
|          14|           0|   -1.261687|    1.369150|    1.190599|    4.196959|    0.549277|    0.083269|
|          15|           0|   -1.252985|    1.387981|    1.211953|    4.204552|    0.541070|    0.018801|
|          16|           0|   -1.246357|    1.402951|    1.231229|    4.210118|    0.530657|   -0.034731|
|          17|           0|   -1.240508|    1.413658|    1.247616|    4.215068|    0.517674|   -0.078168|
|          18|           0|   -1.234154|    1.419745|    1.260307|    4.220803|    0.501890|   -0.112462|
|          19|           0|   -1.225482|    1.420896|    1.268551|    4.229357|    0.483202|   -0.138592|
|          20|           0|   -1.212848|    1.416959|    1.271839|    4.242553|    0.461618|   -0.157501|
+-----------------------------------------------------------------------+
|        File Writing Summary       |              Filename             |
+-----------------------------------------------------------------------+
|SU2 restart                        |solution_flow.dat                  |
|Paraview                           |flow.vtu                           |
|Paraview surface                   |surface_flow.vtu                   |
+-----------------------------------------------------------------------+

Writing the forces breakdown file (forces_breakdown.dat).
+-------------------------------------------------------------------------------------------------------+
|  Inner_Iter|   Time_Iter|    rms[Rho]|   rms[RhoU]|   rms[RhoV]|   rms[RhoE]|          CL|          CD|
+-------------------------------------------------------------------------------------------------------+
|          21|           0|   -1.195558|    1.408019|    1.269882|    4.261097|    0.437289|   -0.170072|
|          22|           0|   -1.174237|    1.395023|    1.263192|    4.284234|    0.410491|   -0.177106|
|          23|           0|   -1.150102|    1.379425|    1.252946|    4.310552|    0.381641|   -0.179310|
|          24|           0|   -1.125463|    1.363694|    1.240783|    4.337448|    0.351319|   -0.177294|
|          25|           0|   -1.102769|    1.351400|    1.230236|    4.362175|    0.320157|   -0.171608|
|          26|           0|   -1.084011|    1.346697|    1.225387|    4.382581|    0.288799|   -0.162754|
|          27|           0|   -1.070623|    1.351642|    1.229097|    4.397145|    0.257948|   -0.151193|
|          28|           0|   -1.063521|    1.365597|    1.241933|    4.404903|    0.228265|   -0.137358|
|          29|           0|   -1.063034|    1.386031|    1.262443|    4.405356|    0.200404|   -0.121669|
|          30|           0|   -1.068543|    1.408348|    1.287207|    4.399030|    0.174988|   -0.104528|
+-----------------------------------------------------------------------+
|        File Writing Summary       |              Filename             |
+-----------------------------------------------------------------------+
|SU2 restart                        |solution_flow.dat                  |
|Paraview                           |flow.vtu                           |
|Paraview surface                   |surface_flow.vtu                   |
+-----------------------------------------------------------------------+

Writing the forces breakdown file (forces_breakdown.dat).
+-------------------------------------------------------------------------------------------------------+
|  Inner_Iter|   Time_Iter|    rms[Rho]|   rms[RhoU]|   rms[RhoV]|   rms[RhoE]|          CL|          CD|
+-------------------------------------------------------------------------------------------------------+
|          31|           0|   -1.078922|    1.429159|    1.312123|    4.386895|    0.152579|   -0.086334|
|          32|           0|   -1.090712|    1.446403|    1.333319|    4.372348|    0.133617|   -0.067480|
|          33|           0|   -1.100650|    1.458992|    1.348757|    4.358885|    0.118464|   -0.048349|
|          34|           0|   -1.103715|    1.466359|    1.357547|    4.352378|    0.107416|   -0.029309|
|          35|           0|   -1.095767|    1.469306|    1.360446|    4.358286|    0.100685|   -0.010715|
|          36|           0|   -1.077520|    1.470968|    1.359352|    4.376805|    0.098344|    0.007104|
|          37|           0|   -1.052915|    1.473411|    1.356414|    4.403747|    0.100405|    0.023852|
|          38|           0|   -1.027402|    1.479850|    1.356223|    4.432832|    0.106730|    0.039255|
|          39|           0|   -1.004915|    1.492326|    1.363773|    4.459309|    0.117102|    0.053084|
|          40|           0|   -0.988779|    1.511065|    1.381518|    4.479434|    0.131214|    0.065152|
+-----------------------------------------------------------------------+
|        File Writing Summary       |              Filename             |
+-----------------------------------------------------------------------+
|SU2 restart                        |solution_flow.dat                  |
|Paraview                           |flow.vtu                           |
|Paraview surface                   |surface_flow.vtu                   |
+-----------------------------------------------------------------------+

Writing the forces breakdown file (forces_breakdown.dat).
+-------------------------------------------------------------------------------------------------------+
|  Inner_Iter|   Time_Iter|    rms[Rho]|   rms[RhoU]|   rms[RhoV]|   rms[RhoE]|          CL|          CD|
+-------------------------------------------------------------------------------------------------------+
|          41|           0|   -0.981721|    1.533796|    1.407376|    4.490252|    0.148743|    0.075325|
|          42|           0|   -0.984769|    1.557522|    1.437450|    4.490809|    0.169263|    0.083508|
|          43|           0|   -0.997814|    1.579109|    1.467588|    4.481092|    0.192328|    0.089663|
|          44|           0|   -1.020825|    1.595607|    1.493972|    4.460828|    0.217384|    0.093780|
|          45|           0|   -1.051897|    1.604882|    1.513484|    4.431392|    0.243907|    0.095904|
|          46|           0|   -1.086368|    1.605614|    1.523587|    4.396531|    0.271332|    0.096121|
|          47|           0|   -1.114483|    1.596070|    1.522872|    4.364602|    0.299115|    0.094554|
|          48|           0|   -1.122251|    1.575321|    1.509957|    4.349595|    0.326696|    0.091358|
|          49|           0|   -1.102369|    1.543359|    1.483783|    4.361971|    0.353549|    0.086721|
|          50|           0|   -1.061158|    1.500304|    1.442958|    4.398683|    0.379162|    0.080848|
+-----------------------------------------------------------------------+
|        File Writing Summary       |              Filename             |
+-----------------------------------------------------------------------+
|SU2 restart                        |solution_flow.dat                  |
|Paraview                           |flow.vtu                           |
|Paraview surface                   |surface_flow.vtu                   |
+-----------------------------------------------------------------------+

Writing the forces breakdown file (forces_breakdown.dat).
+-------------------------------------------------------------------------------------------------------+
|  Inner_Iter|   Time_Iter|    rms[Rho]|   rms[RhoU]|   rms[RhoV]|   rms[RhoE]|          CL|          CD|
+-------------------------------------------------------------------------------------------------------+
|          51|           0|   -1.011709|    1.448141|    1.386025|    4.447133|    0.403083|    0.073968|
|          52|           0|   -0.964912|    1.391580|    1.312571|    4.495103|    0.424872|    0.066312|
|          53|           0|   -0.926485|    1.347992|    1.234802|    4.535701|    0.444193|    0.058120|
|          54|           0|   -0.898511|    1.340419|    1.189976|    4.566125|    0.460737|    0.049625|
|          55|           0|   -0.881934|    1.374404|    1.218401|    4.585113|    0.474287|    0.041053|
|          56|           0|   -0.877160|    1.430351|    1.297734|    4.592033|    0.484668|    0.032612|
|          57|           0|   -0.884548|    1.490113|    1.386025|    4.586387|    0.491812|    0.024499|
|          58|           0|   -0.903236|    1.543647|    1.464893|    4.569106|    0.495703|    0.016882|
|          59|           0|   -0.933184|    1.587447|    1.528882|    4.539998|    0.496428|    0.009909|
|          60|           0|   -0.974341|    1.620410|    1.577915|    4.498551|    0.494112|    0.003699|
+-----------------------------------------------------------------------+
|        File Writing Summary       |              Filename             |
+-----------------------------------------------------------------------+
|SU2 restart                        |solution_flow.dat                  |
|Paraview                           |flow.vtu                           |
|Paraview surface                   |surface_flow.vtu                   |
+-----------------------------------------------------------------------+

Writing the forces breakdown file (forces_breakdown.dat).
+-------------------------------------------------------------------------------------------------------+
|  Inner_Iter|   Time_Iter|    rms[Rho]|   rms[RhoU]|   rms[RhoV]|   rms[RhoE]|          CL|          CD|
+-------------------------------------------------------------------------------------------------------+
|          61|           0|   -1.024645|    1.643229|    1.612730|    4.445904|    0.488975|   -0.001653|
|          62|           0|   -1.078333|    1.655138|    1.634358|    4.386281|    0.481262|   -0.006086|
|          63|           0|   -1.124187|    1.655913|    1.644350|    4.329419|    0.471291|   -0.009562|
|          64|           0|   -1.144433|    1.646818|    1.643160|    4.295830|    0.459377|   -0.012077|
|          65|           0|   -1.130729|    1.627848|    1.630634|    4.300979|    0.445899|   -0.013648|
|          66|           0|   -1.091099|    1.598381|    1.606832|    4.340427|    0.431210|   -0.014317|
|          67|           0|   -1.041908|    1.558759|    1.571345|    4.394531|    0.415725|   -0.014143|
|          68|           0|   -0.995899|    1.509129|    1.523501|    4.446650|    0.399803|   -0.013201|
|          69|           0|   -0.958248|    1.449626|    1.462748|    4.489882|    0.383865|   -0.011578|
|          70|           0|   -0.930710|    1.385850|    1.390497|    4.522043|    0.368252|   -0.009371|
+-----------------------------------------------------------------------+
|        File Writing Summary       |              Filename             |
+-----------------------------------------------------------------------+
|SU2 restart                        |solution_flow.dat                  |
|Paraview                           |flow.vtu                           |
|Paraview surface                   |surface_flow.vtu                   |
+-----------------------------------------------------------------------+

Writing the forces breakdown file (forces_breakdown.dat).
+-------------------------------------------------------------------------------------------------------+
|  Inner_Iter|   Time_Iter|    rms[Rho]|   rms[RhoU]|   rms[RhoV]|   rms[RhoE]|          CL|          CD|
+-------------------------------------------------------------------------------------------------------+
|          71|           0|   -0.913365|    1.326371|    1.309754|    4.543128|    0.353342|   -0.006681|
|          72|           0|   -0.906286|    1.287608|    1.234146|    4.553230|    0.339426|   -0.003618|
|          73|           0|   -0.908710|    1.283546|    1.190177|    4.553183|    0.326831|   -0.000284|
|          74|           0|   -0.920256|    1.309856|    1.200189|    4.543361|    0.315790|    0.003212|
|          75|           0|   -0.939986|    1.351600|    1.251039|    4.524732|    0.306557|    0.006776|
|          76|           0|   -0.967662|    1.395517|    1.313394|    4.497341|    0.299267|    0.010310|
|          77|           0|   -1.001766|    1.434344|    1.370832|    4.462360|    0.294080|    0.013738|
|          78|           0|   -1.040620|    1.465313|    1.417790|    4.420920|    0.291021|    0.016977|
|          79|           0|   -1.080317|    1.488558|    1.453130|    4.376418|    0.290140|    0.019969|
|          80|           0|   -1.116238|    1.503536|    1.477692|    4.333178|    0.291383|    0.022657|
+-----------------------------------------------------------------------+
|        File Writing Summary       |              Filename             |
+-----------------------------------------------------------------------+
|SU2 restart                        |solution_flow.dat                  |
|Paraview                           |flow.vtu                           |
|Paraview surface                   |surface_flow.vtu                   |
+-----------------------------------------------------------------------+

Writing the forces breakdown file (forces_breakdown.dat).
+-------------------------------------------------------------------------------------------------------+
|  Inner_Iter|   Time_Iter|    rms[Rho]|   rms[RhoU]|   rms[RhoV]|   rms[RhoE]|          CL|          CD|
+-------------------------------------------------------------------------------------------------------+
|          81|           0|   -1.143241|    1.510807|    1.492675|    4.296883|    0.294704|    0.025007|
|          82|           0|   -1.156511|    1.510798|    1.498906|    4.274652|    0.299973|    0.026983|
|          83|           0|   -1.156090|    1.503824|    1.496075|    4.268971|    0.307058|    0.028573|
|          84|           0|   -1.145396|    1.491381|    1.485627|    4.277637|    0.315751|    0.029763|
|          85|           0|   -1.129528|    1.473263|    1.468143|    4.294858|    0.325865|    0.030560|
|          86|           0|   -1.112555|    1.450034|    1.443948|    4.315261|    0.337140|    0.030973|
|          87|           0|   -1.098376|    1.422917|    1.414302|    4.333676|    0.349340|    0.031025|
|          88|           0|   -1.088734|    1.392741|    1.380434|    4.347644|    0.362170|    0.030738|
|          89|           0|   -1.084955|    1.361388|    1.343207|    4.355498|    0.375372|    0.030147|
|          90|           0|   -1.086412|    1.329781|    1.305245|    4.357832|    0.388655|    0.029282|
+-----------------------------------------------------------------------+
|        File Writing Summary       |              Filename             |
+-----------------------------------------------------------------------+
|SU2 restart                        |solution_flow.dat                  |
|Paraview                           |flow.vtu                           |
|Paraview surface                   |surface_flow.vtu                   |
+-----------------------------------------------------------------------+

Writing the forces breakdown file (forces_breakdown.dat).
+-------------------------------------------------------------------------------------------------------+
|  Inner_Iter|   Time_Iter|    rms[Rho]|   rms[RhoU]|   rms[RhoV]|   rms[RhoE]|          CL|          CD|
+-------------------------------------------------------------------------------------------------------+
|          91|           0|   -1.093485|    1.299886|    1.268595|    4.354083|    0.401764|    0.028185|
|          92|           0|   -1.105401|    1.273270|    1.237454|    4.345097|    0.414421|    0.026891|
|          93|           0|   -1.122083|    1.251115|    1.214747|    4.330836|    0.426416|    0.025445|
|          94|           0|   -1.142380|    1.234271|    1.202267|    4.312488|    0.437508|    0.023884|
|          95|           0|   -1.165519|    1.223700|    1.200021|    4.290756|    0.447528|    0.022252|
|          96|           0|   -1.190145|    1.218802|    1.206630|    4.266853|    0.456293|    0.020581|
|          97|           0|   -1.215569|    1.218827|    1.218297|    4.241221|    0.463711|    0.018912|
|          98|           0|   -1.240933|    1.222066|    1.232295|    4.214554|    0.469668|    0.017271|
|          99|           0|   -1.264862|    1.226729|    1.246327|    4.188181|    0.474138|    0.015690|
|         100|           0|   -1.286435|    1.232165|    1.258656|    4.163174|    0.477078|    0.014192|
+-----------------------------------------------------------------------+
|        File Writing Summary       |              Filename             |
+-----------------------------------------------------------------------+
|SU2 restart                        |solution_flow.dat                  |
|Paraview                           |flow.vtu                           |
|Paraview surface                   |surface_flow.vtu                   |
+-----------------------------------------------------------------------+

Writing the forces breakdown file (forces_breakdown.dat).
+-------------------------------------------------------------------------------------------------------+
|  Inner_Iter|   Time_Iter|    rms[Rho]|   rms[RhoU]|   rms[RhoV]|   rms[RhoE]|          CL|          CD|
+-------------------------------------------------------------------------------------------------------+
|         101|           0|   -1.304872|    1.237502|    1.268423|    4.140519|    0.478533|    0.012800|
|         102|           0|   -1.320172|    1.241787|    1.275408|    4.120533|    0.478532|    0.011528|
|         103|           0|   -1.332642|    1.244441|    1.279338|    4.103433|    0.477180|    0.010395|
|         104|           0|   -1.342563|    1.245337|    1.280179|    4.089502|    0.474562|    0.009405|
|         105|           0|   -1.351326|    1.244278|    1.277863|    4.077537|    0.470832|    0.008570|
|         106|           0|   -1.359951|    1.241294|    1.272625|    4.066650|    0.466125|    0.007889|
|         107|           0|   -1.369271|    1.236385|    1.264746|    4.056111|    0.460629|    0.007366|
|         108|           0|   -1.380269|    1.229496|    1.254487|    4.044832|    0.454498|    0.006996|
|         109|           0|   -1.393118|    1.220516|    1.241714|    4.032658|    0.447938|    0.006779|
|         110|           0|   -1.407608|    1.209385|    1.226527|    4.019805|    0.441115|    0.006706|
+-----------------------------------------------------------------------+
|        File Writing Summary       |              Filename             |
+-----------------------------------------------------------------------+
|SU2 restart                        |solution_flow.dat                  |
|Paraview                           |flow.vtu                           |
|Paraview surface                   |surface_flow.vtu                   |
+-----------------------------------------------------------------------+

Writing the forces breakdown file (forces_breakdown.dat).
+-------------------------------------------------------------------------------------------------------+
|  Inner_Iter|   Time_Iter|    rms[Rho]|   rms[RhoU]|   rms[RhoV]|   rms[RhoE]|          CL|          CD|
+-------------------------------------------------------------------------------------------------------+
|         111|           0|   -1.423316|    1.195759|    1.209029|    4.006685|    0.434229|    0.006769|
|         112|           0|   -1.440010|    1.179609|    1.189461|    3.993363|    0.427440|    0.006960|
|         113|           0|   -1.457024|    1.160880|    1.168171|    3.980407|    0.420933|    0.007266|
|         114|           0|   -1.474111|    1.139745|    1.145617|    3.967826|    0.414843|    0.007677|
|         115|           0|   -1.490606|    1.116540|    1.122267|    3.956046|    0.409326|    0.008180|
|         116|           0|   -1.506429|    1.091653|    1.098844|    3.944777|    0.404477|    0.008761|
|         117|           0|   -1.521661|    1.065544|    1.076336|    3.933569|    0.400406|    0.009409|
|         118|           0|   -1.536212|    1.039242|    1.055502|    3.922339|    0.397169|    0.010107|
|         119|           0|   -1.550494|    1.013832|    1.037366|    3.910475|    0.394840|    0.010844|
|         120|           0|   -1.564757|    0.990337|    1.022740|    3.897631|    0.393429|    0.011604|
+-----------------------------------------------------------------------+
|        File Writing Summary       |              Filename             |
+-----------------------------------------------------------------------+
|SU2 restart                        |solution_flow.dat                  |
|Paraview                           |flow.vtu                           |
|Paraview surface                   |surface_flow.vtu                   |
+-----------------------------------------------------------------------+

Writing the forces breakdown file (forces_breakdown.dat).
+-------------------------------------------------------------------------------------------------------+
|  Inner_Iter|   Time_Iter|    rms[Rho]|   rms[RhoU]|   rms[RhoV]|   rms[RhoE]|          CL|          CD|
+-------------------------------------------------------------------------------------------------------+
|         121|           0|   -1.579546|    0.969985|    1.012245|    3.883277|    0.392961|    0.012377|
|         122|           0|   -1.595496|    0.954169|    1.006143|    3.866780|    0.393408|    0.013146|
|         123|           0|   -1.612638|    0.943902|    1.004209|    3.848148|    0.394753|    0.013903|
|         124|           0|   -1.631217|    0.939074|    1.005907|    3.827316|    0.396927|    0.014633|
|         125|           0|   -1.651613|    0.938700|    1.010320|    3.803916|    0.399883|    0.015326|
|         126|           0|   -1.673651|    0.941794|    1.016589|    3.778156|    0.403523|    0.015972|
|         127|           0|   -1.697176|    0.947133|    1.023659|    3.750264|    0.407777|    0.016560|
|         128|           0|   -1.722084|    0.953517|    1.030554|    3.720508|    0.412524|    0.017083|
|         129|           0|   -1.748344|    0.959880|    1.036807|    3.689006|    0.417676|    0.017533|
|         130|           0|   -1.775482|    0.964841|    1.041986|    3.656418|    0.423112|    0.017903|
+-----------------------------------------------------------------------+
|        File Writing Summary       |              Filename             |
+-----------------------------------------------------------------------+
|SU2 restart                        |solution_flow.dat                  |
|Paraview                           |flow.vtu                           |
|Paraview surface                   |surface_flow.vtu                   |
+-----------------------------------------------------------------------+

Writing the forces breakdown file (forces_breakdown.dat).
+-------------------------------------------------------------------------------------------------------+
|  Inner_Iter|   Time_Iter|    rms[Rho]|   rms[RhoU]|   rms[RhoV]|   rms[RhoE]|          CL|          CD|
+-------------------------------------------------------------------------------------------------------+
|         131|           0|   -1.802926|    0.968059|    1.045811|    3.623690|    0.428738|    0.018189|
|         132|           0|   -1.830266|    0.969046|    1.048077|    3.591598|    0.434434|    0.018385|
|         133|           0|   -1.855927|    0.967662|    1.048750|    3.562394|    0.440110|    0.018490|
|         134|           0|   -1.879132|    0.963787|    1.047753|    3.537447|    0.445652|    0.018502|
|         135|           0|   -1.898678|    0.957409|    1.045162|    3.518368|    0.450987|    0.018421|
|         136|           0|   -1.913793|    0.948280|    1.041082|    3.505924|    0.456012|    0.018249|
|         137|           0|   -1.925117|    0.936510|    1.035637|    3.499013|    0.460671|    0.017988|
|         138|           0|   -1.933252|    0.922480|    1.028989|    3.496361|    0.464888|    0.017644|
|         139|           0|   -1.938792|    0.906460|    1.021384|    3.496627|    0.468628|    0.017223|
|         140|           0|   -1.942231|    0.888668|    1.013086|    3.498831|    0.471840|    0.016730|
+-----------------------------------------------------------------------+
|        File Writing Summary       |              Filename             |
+-----------------------------------------------------------------------+
|SU2 restart                        |solution_flow.dat                  |
|Paraview                           |flow.vtu                           |
|Paraview surface                   |surface_flow.vtu                   |
+-----------------------------------------------------------------------+

Writing the forces breakdown file (forces_breakdown.dat).
+-------------------------------------------------------------------------------------------------------+
|  Inner_Iter|   Time_Iter|    rms[Rho]|   rms[RhoU]|   rms[RhoV]|   rms[RhoE]|          CL|          CD|
+-------------------------------------------------------------------------------------------------------+
|         141|           0|   -1.944609|    0.868954|    1.004335|    3.501469|    0.474510|    0.016174|
|         142|           0|   -1.946989|    0.847816|    0.995441|    3.503328|    0.476609|    0.015564|
|         143|           0|   -1.950259|    0.826135|    0.986623|    3.503491|    0.478154|    0.014911|
|         144|           0|   -1.954781|    0.804481|    0.978085|    3.501606|    0.479145|    0.014225|
|         145|           0|   -1.961008|    0.783799|    0.970013|    3.497368|    0.479616|    0.013518|
|         146|           0|   -1.969150|    0.764978|    0.962552|    3.490695|    0.479588|    0.012800|
|         147|           0|   -1.979331|    0.748823|    0.955770|    3.481614|    0.479111|    0.012085|
|         148|           0|   -1.991485|    0.736078|    0.949747|    3.470219|    0.478211|    0.011384|
|         149|           0|   -2.005921|    0.727057|    0.944447|    3.456283|    0.476958|    0.010708|
|         150|           0|   -2.022461|    0.721962|    0.939850|    3.440074|    0.475389|    0.010068|
+-----------------------------------------------------------------------+
|        File Writing Summary       |              Filename             |
+-----------------------------------------------------------------------+
|SU2 restart                        |solution_flow.dat                  |
|Paraview                           |flow.vtu                           |
|Paraview surface                   |surface_flow.vtu                   |
+-----------------------------------------------------------------------+

Writing the forces breakdown file (forces_breakdown.dat).
+-------------------------------------------------------------------------------------------------------+
|  Inner_Iter|   Time_Iter|    rms[Rho]|   rms[RhoU]|   rms[RhoV]|   rms[RhoE]|          CL|          CD|
+-------------------------------------------------------------------------------------------------------+
|         151|           0|   -2.040939|    0.720547|    0.935842|    3.421847|    0.473582|    0.009475|
|         152|           0|   -2.061099|    0.722289|    0.932332|    3.401830|    0.471578|    0.008937|
|         153|           0|   -2.082898|    0.726501|    0.929151|    3.379990|    0.469458|    0.008463|
|         154|           0|   -2.105982|    0.732505|    0.926171|    3.356672|    0.467263|    0.008060|
|         155|           0|   -2.129684|    0.739592|    0.923221|    3.332432|    0.465072|    0.007734|
|         156|           0|   -2.153475|    0.747155|    0.920191|    3.307652|    0.462918|    0.007488|
|         157|           0|   -2.176712|    0.754699|    0.916951|    3.282880|    0.460867|    0.007327|
|         158|           0|   -2.198682|    0.761946|    0.913423|    3.258739|    0.458950|    0.007249|
|         159|           0|   -2.218658|    0.768579|    0.909538|    3.235861|    0.457222|    0.007256|
|         160|           0|   -2.235753|    0.774413|    0.905279|    3.215082|    0.455709|    0.007344|
+-----------------------------------------------------------------------+
|        File Writing Summary       |              Filename             |
+-----------------------------------------------------------------------+
|SU2 restart                        |solution_flow.dat                  |
|Paraview                           |flow.vtu                           |
|Paraview surface                   |surface_flow.vtu                   |
+-----------------------------------------------------------------------+

Writing the forces breakdown file (forces_breakdown.dat).
+-------------------------------------------------------------------------------------------------------+
|  Inner_Iter|   Time_Iter|    rms[Rho]|   rms[RhoU]|   rms[RhoV]|   rms[RhoE]|          CL|          CD|
+-------------------------------------------------------------------------------------------------------+
|         161|           0|   -2.249324|    0.779330|    0.900627|    3.197317|    0.454455|    0.007507|
|         162|           0|   -2.259254|    0.783257|    0.895566|    3.182895|    0.453474|    0.007742|
|         163|           0|   -2.265279|    0.786234|    0.890063|    3.172563|    0.452788|    0.008040|
|         164|           0|   -2.267628|    0.788263|    0.884123|    3.166570|    0.452398|    0.008393|
|         165|           0|   -2.266438|    0.789356|    0.877743|    3.164979|    0.452316|    0.008794|
|         166|           0|   -2.262402|    0.789591|    0.870957|    3.167372|    0.452526|    0.009232|
|         167|           0|   -2.256454|    0.789084|    0.863801|    3.172883|    0.453034|    0.009698|
|         168|           0|   -2.249219|    0.787920|    0.856235|    3.180705|    0.453809|    0.010179|
|         169|           0|   -2.241496|    0.786249|    0.848332|    3.189934|    0.454848|    0.010667|
|         170|           0|   -2.233785|    0.784163|    0.840120|    3.199748|    0.456115|    0.011150|
+-----------------------------------------------------------------------+
|        File Writing Summary       |              Filename             |
+-----------------------------------------------------------------------+
|SU2 restart                        |solution_flow.dat                  |
|Paraview                           |flow.vtu                           |
|Paraview surface                   |surface_flow.vtu                   |
+-----------------------------------------------------------------------+

Writing the forces breakdown file (forces_breakdown.dat).
+-------------------------------------------------------------------------------------------------------+
|  Inner_Iter|   Time_Iter|    rms[Rho]|   rms[RhoU]|   rms[RhoV]|   rms[RhoE]|          CL|          CD|
+-------------------------------------------------------------------------------------------------------+
|         171|           0|   -2.227030|    0.781775|    0.831632|    3.208822|    0.457596|    0.011619|
|         172|           0|   -2.221495|    0.779281|    0.822948|    3.216865|    0.459251|    0.012063|
|         173|           0|   -2.217881|    0.776786|    0.814132|    3.223182|    0.461060|    0.012474|
|         174|           0|   -2.216375|    0.774372|    0.805231|    3.227423|    0.462978|    0.012844|
|         175|           0|   -2.216654|    0.772198|    0.796310|    3.229943|    0.464987|    0.013165|
|         176|           0|   -2.218750|    0.770320|    0.787422|    3.230667|    0.467038|    0.013432|
|         177|           0|   -2.222203|    0.768773|    0.778592|    3.229954|    0.469110|    0.013642|
|         178|           0|   -2.227278|    0.767587|    0.769858|    3.227390|    0.471164|    0.013791|
|         179|           0|   -2.233495|    0.766868|    0.761260|    3.223836|    0.473171|    0.013879|
|         180|           0|   -2.240400|    0.766627|    0.752746|    3.219619|    0.475102|    0.013904|
+-----------------------------------------------------------------------+
|        File Writing Summary       |              Filename             |
+-----------------------------------------------------------------------+
|SU2 restart                        |solution_flow.dat                  |
|Paraview                           |flow.vtu                           |
|Paraview surface                   |surface_flow.vtu                   |
+-----------------------------------------------------------------------+

Writing the forces breakdown file (forces_breakdown.dat).
+-------------------------------------------------------------------------------------------------------+
|  Inner_Iter|   Time_Iter|    rms[Rho]|   rms[RhoU]|   rms[RhoV]|   rms[RhoE]|          CL|          CD|
+-------------------------------------------------------------------------------------------------------+
|         181|           0|   -2.247627|    0.766851|    0.744264|    3.215027|    0.476931|    0.013868|
|         182|           0|   -2.254027|    0.767283|    0.735922|    3.210999|    0.478632|    0.013774|
|         183|           0|   -2.259384|    0.768042|    0.727843|    3.207798|    0.480189|    0.013626|
|         184|           0|   -2.263608|    0.769051|    0.720030|    3.205433|    0.481583|    0.013427|
|         185|           0|   -2.266125|    0.770354|    0.712478|    3.204492|    0.482803|    0.013186|
|         186|           0|   -2.267036|    0.771949|    0.705165|    3.204876|    0.483841|    0.012907|
|         187|           0|   -2.266455|    0.773484|    0.697932|    3.205973|    0.484694|    0.012598|
|         188|           0|   -2.265945|    0.774419|    0.690877|    3.205803|    0.485361|    0.012266|
|         189|           0|   -2.264700|    0.775162|    0.684076|    3.205473|    0.485849|    0.011921|
|         190|           0|   -2.262696|    0.775933|    0.677586|    3.205415|    0.486163|    0.011567|
+-----------------------------------------------------------------------+
|        File Writing Summary       |              Filename             |
+-----------------------------------------------------------------------+
|SU2 restart                        |solution_flow.dat                  |
|Paraview                           |flow.vtu                           |
|Paraview surface                   |surface_flow.vtu                   |
+-----------------------------------------------------------------------+

Writing the forces breakdown file (forces_breakdown.dat).
+-------------------------------------------------------------------------------------------------------+
|  Inner_Iter|   Time_Iter|    rms[Rho]|   rms[RhoU]|   rms[RhoV]|   rms[RhoE]|          CL|          CD|
+-------------------------------------------------------------------------------------------------------+
|         191|           0|   -2.260733|    0.776716|    0.671448|    3.204941|    0.486314|    0.011216|
|         192|           0|   -2.258935|    0.777445|    0.665694|    3.204054|    0.486313|    0.010871|
|         193|           0|   -2.258058|    0.778007|    0.660241|    3.202195|    0.486176|    0.010542|
|         194|           0|   -2.258497|    0.778470|    0.654932|    3.199175|    0.485921|    0.010234|
|         195|           0|   -2.261319|    0.778437|    0.649637|    3.193839|    0.485569|    0.009953|
|         196|           0|   -2.265965|    0.777793|    0.644225|    3.186604|    0.485134|    0.009701|
|         197|           0|   -2.271786|    0.776732|    0.638361|    3.178487|    0.484641|    0.009485|
|         198|           0|   -2.279211|    0.774790|    0.631978|    3.168749|    0.484106|    0.009305|
|         199|           0|   -2.286804|    0.772276|    0.624927|    3.159360|    0.483554|    0.009164|
|         200|           0|   -2.294141|    0.769112|    0.617026|    3.151098|    0.483000|    0.009061|
+-----------------------------------------------------------------------+
|        File Writing Summary       |              Filename             |
+-----------------------------------------------------------------------+
|SU2 restart                        |solution_flow.dat                  |
|Paraview                           |flow.vtu                           |
|Paraview surface                   |surface_flow.vtu                   |
+-----------------------------------------------------------------------+

Writing the forces breakdown file (forces_breakdown.dat).
+-------------------------------------------------------------------------------------------------------+
|  Inner_Iter|   Time_Iter|    rms[Rho]|   rms[RhoU]|   rms[RhoV]|   rms[RhoE]|          CL|          CD|
+-------------------------------------------------------------------------------------------------------+
|         201|           0|   -2.300778|    0.765342|    0.608024|    3.144593|    0.482466|    0.008997|
|         202|           0|   -2.306580|    0.760896|    0.597703|    3.140129|    0.481969|    0.008969|
|         203|           0|   -2.310694|    0.755638|    0.585936|    3.138386|    0.481527|    0.008976|
|         204|           0|   -2.312874|    0.749532|    0.572744|    3.139397|    0.481147|    0.009014|
|         205|           0|   -2.312645|    0.742763|    0.558097|    3.143398|    0.480844|    0.009080|
|         206|           0|   -2.309889|    0.735405|    0.542019|    3.150148|    0.480627|    0.009169|
|         207|           0|   -2.305751|    0.727388|    0.524602|    3.158062|    0.480503|    0.009277|
|         208|           0|   -2.300163|    0.718814|    0.506064|    3.166917|    0.480473|    0.009399|
|         209|           0|   -2.293768|    0.709856|    0.486835|    3.175944|    0.480544|    0.009530|
|         210|           0|   -2.287696|    0.700738|    0.467489|    3.184002|    0.480709|    0.009664|
+-----------------------------------------------------------------------+
|        File Writing Summary       |              Filename             |
+-----------------------------------------------------------------------+
|SU2 restart                        |solution_flow.dat                  |
|Paraview                           |flow.vtu                           |
|Paraview surface                   |surface_flow.vtu                   |
+-----------------------------------------------------------------------+

Writing the forces breakdown file (forces_breakdown.dat).
+-------------------------------------------------------------------------------------------------------+
|  Inner_Iter|   Time_Iter|    rms[Rho]|   rms[RhoU]|   rms[RhoV]|   rms[RhoE]|          CL|          CD|
+-------------------------------------------------------------------------------------------------------+
|         211|           0|   -2.282115|    0.691652|    0.448780|    3.191034|    0.480973|    0.009798|
|         212|           0|   -2.277821|    0.682892|    0.431478|    3.196260|    0.481326|    0.009926|
|         213|           0|   -2.275389|    0.674733|    0.416403|    3.199217|    0.481762|    0.010045|
|         214|           0|   -2.275122|    0.667383|    0.404355|    3.199659|    0.482273|    0.010151|
|         215|           0|   -2.277064|    0.660960|    0.395772|    3.197538|    0.482852|    0.010240|
|         216|           0|   -2.281217|    0.655588|    0.390818|    3.192960|    0.483482|    0.010311|
|         217|           0|   -2.288429|    0.651297|    0.389220|    3.185076|    0.484156|    0.010361|
|         218|           0|   -2.298502|    0.647841|    0.390380|    3.173998|    0.484858|    0.010388|
|         219|           0|   -2.311121|    0.645150|    0.393533|    3.160115|    0.485582|    0.010394|
|         220|           0|   -2.325802|    0.642891|    0.397711|    3.143735|    0.486310|    0.010378|
+-----------------------------------------------------------------------+
|        File Writing Summary       |              Filename             |
+-----------------------------------------------------------------------+
|SU2 restart                        |solution_flow.dat                  |
|Paraview                           |flow.vtu                           |
|Paraview surface                   |surface_flow.vtu                   |
+-----------------------------------------------------------------------+

Writing the forces breakdown file (forces_breakdown.dat).
+-------------------------------------------------------------------------------------------------------+
|  Inner_Iter|   Time_Iter|    rms[Rho]|   rms[RhoU]|   rms[RhoV]|   rms[RhoE]|          CL|          CD|
+-------------------------------------------------------------------------------------------------------+
|         221|           0|   -2.342360|    0.640784|    0.402020|    3.125009|    0.487032|    0.010341|
|         222|           0|   -2.360098|    0.638559|    0.405643|    3.104619|    0.487736|    0.010284|
|         223|           0|   -2.378305|    0.635995|    0.407919|    3.083309|    0.488414|    0.010210|
|         224|           0|   -2.395962|    0.632838|    0.408356|    3.062220|    0.489052|    0.010120|
|         225|           0|   -2.411918|    0.628870|    0.406496|    3.042774|    0.489646|    0.010020|
|         226|           0|   -2.425165|    0.623920|    0.401967|    3.026393|    0.490183|    0.009910|
|         227|           0|   -2.434626|    0.618324|    0.394697|    3.014196|    0.490664|    0.009796|
|         228|           0|   -2.439287|    0.612137|    0.384567|    3.008251|    0.491077|    0.009679|
|         229|           0|   -2.439410|    0.603983|    0.371068|    3.007832|    0.491427|    0.009564|
|         230|           0|   -2.435759|    0.594018|    0.354108|    3.012212|    0.491705|    0.009453|
+-----------------------------------------------------------------------+
|        File Writing Summary       |              Filename             |
+-----------------------------------------------------------------------+
|SU2 restart                        |solution_flow.dat                  |
|Paraview                           |flow.vtu                           |
|Paraview surface                   |surface_flow.vtu                   |
+-----------------------------------------------------------------------+

Writing the forces breakdown file (forces_breakdown.dat).
+-------------------------------------------------------------------------------------------------------+
|  Inner_Iter|   Time_Iter|    rms[Rho]|   rms[RhoU]|   rms[RhoV]|   rms[RhoE]|          CL|          CD|
+-------------------------------------------------------------------------------------------------------+
|         231|           0|   -2.428909|    0.582507|    0.333687|    3.020626|    0.491917|    0.009351|
|         232|           0|   -2.420005|    0.569658|    0.309921|    3.031795|    0.492058|    0.009260|
|         233|           0|   -2.410014|    0.555725|    0.282994|    3.044480|    0.492141|    0.009182|
|         234|           0|   -2.400055|    0.540970|    0.253239|    3.057259|    0.492166|    0.009119|
|         235|           0|   -2.391110|    0.525773|    0.221354|    3.068956|    0.492138|    0.009074|
|         236|           0|   -2.383907|    0.510480|    0.188542|    3.078693|    0.492064|    0.009045|
|         237|           0|   -2.379100|    0.495444|    0.156655|    3.085710|    0.491955|    0.009037|
|         238|           0|   -2.377028|    0.481059|    0.128260|    3.089700|    0.491815|    0.009047|
|         239|           0|   -2.377992|    0.467698|    0.106241|    3.090333|    0.491655|    0.009076|
|         240|           0|   -2.382069|    0.455714|    0.093081|    3.087566|    0.491482|    0.009122|
+-----------------------------------------------------------------------+
|        File Writing Summary       |              Filename             |
+-----------------------------------------------------------------------+
|SU2 restart                        |solution_flow.dat                  |
|Paraview                           |flow.vtu                           |
|Paraview surface                   |surface_flow.vtu                   |
+-----------------------------------------------------------------------+

Writing the forces breakdown file (forces_breakdown.dat).
+-------------------------------------------------------------------------------------------------------+
|  Inner_Iter|   Time_Iter|    rms[Rho]|   rms[RhoU]|   rms[RhoV]|   rms[RhoE]|          CL|          CD|
+-------------------------------------------------------------------------------------------------------+
|         241|           0|   -2.389354|    0.445425|    0.090322|    3.081307|    0.491308|    0.009184|
|         242|           0|   -2.399820|    0.436931|    0.097266|    3.071569|    0.491137|    0.009260|
|         243|           0|   -2.413240|    0.430269|    0.111644|    3.058500|    0.490985|    0.009348|
|         244|           0|   -2.429552|    0.425184|    0.130482|    3.042034|    0.490851|    0.009444|
|         245|           0|   -2.448387|    0.421372|    0.151030|    3.022411|    0.490749|    0.009548|
|         246|           0|   -2.469287|    0.418473|    0.171187|    3.000009|    0.490679|    0.009656|
|         247|           0|   -2.491721|    0.416047|    0.189450|    2.975255|    0.490653|    0.009764|
|         248|           0|   -2.514597|    0.413728|    0.204916|    2.949144|    0.490668|    0.009869|
|         249|           0|   -2.536794|    0.411181|    0.217071|    2.922841|    0.490734|    0.009970|
|         250|           0|   -2.556973|    0.408082|    0.225625|    2.897842|    0.490849|    0.010061|
+-----------------------------------------------------------------------+
|        File Writing Summary       |              Filename             |
+-----------------------------------------------------------------------+
|SU2 restart                        |solution_flow.dat                  |
|Paraview                           |flow.vtu                           |
|Paraview surface                   |surface_flow.vtu                   |
+-----------------------------------------------------------------------+

Writing the forces breakdown file (forces_breakdown.dat).
+-------------------------------------------------------------------------------------------------------+
|  Inner_Iter|   Time_Iter|    rms[Rho]|   rms[RhoU]|   rms[RhoV]|   rms[RhoE]|          CL|          CD|
+-------------------------------------------------------------------------------------------------------+
|         251|           0|   -2.573810|    0.404090|    0.230406|    2.875814|    0.491019|    0.010143|
|         252|           0|   -2.585711|    0.398924|    0.231342|    2.858988|    0.491235|    0.010210|
|         253|           0|   -2.592109|    0.392366|    0.228386|    2.848647|    0.491504|    0.010262|
|         254|           0|   -2.592836|    0.384424|    0.221566|    2.845586|    0.491815|    0.010298|
|         255|           0|   -2.588737|    0.375009|    0.210871|    2.849125|    0.492173|    0.010316|
|         256|           0|   -2.581077|    0.364135|    0.196305|    2.857795|    0.492562|    0.010315|
|         257|           0|   -2.571358|    0.351869|    0.177916|    2.869679|    0.492987|    0.010295|
|         258|           0|   -2.561013|    0.338339|    0.155717|    2.882904|    0.493433|    0.010256|
|         259|           0|   -2.551148|    0.323754|    0.129829|    2.896004|    0.493903|    0.010199|
|         260|           0|   -2.542639|    0.308419|    0.100386|    2.907848|    0.494379|    0.010124|
+-----------------------------------------------------------------------+
|        File Writing Summary       |              Filename             |
+-----------------------------------------------------------------------+
|SU2 restart                        |solution_flow.dat                  |
|Paraview                           |flow.vtu                           |
|Paraview surface                   |surface_flow.vtu                   |
+-----------------------------------------------------------------------+

Writing the forces breakdown file (forces_breakdown.dat).
+-------------------------------------------------------------------------------------------------------+
|  Inner_Iter|   Time_Iter|    rms[Rho]|   rms[RhoU]|   rms[RhoV]|   rms[RhoE]|          CL|          CD|
+-------------------------------------------------------------------------------------------------------+
|         261|           0|   -2.536150|    0.292750|    0.067719|    2.917634|    0.494862|    0.010032|
|         262|           0|   -2.532126|    0.277194|    0.032434|    2.924814|    0.495337|    0.009926|
|         263|           0|   -2.530927|    0.262259|   -0.004498|    2.928979|    0.495807|    0.009808|
|         264|           0|   -2.532611|    0.248381|   -0.041653|    2.930044|    0.496256|    0.009678|
|         265|           0|   -2.537311|    0.236079|   -0.076648|    2.927830|    0.496685|    0.009540|
|         266|           0|   -2.545031|    0.225735|   -0.106532|    2.922271|    0.497081|    0.009396|
|         267|           0|   -2.555776|    0.217567|   -0.128415|    2.913317|    0.497444|    0.009249|
|         268|           0|   -2.569591|    0.211597|   -0.140314|    2.900838|    0.497762|    0.009101|
|         269|           0|   -2.586405|    0.207719|   -0.142019|    2.884870|    0.498039|    0.008957|
|         270|           0|   -2.605667|    0.205608|   -0.135079|    2.865868|    0.498265|    0.008816|
+-----------------------------------------------------------------------+
|        File Writing Summary       |              Filename             |
+-----------------------------------------------------------------------+
|SU2 restart                        |solution_flow.dat                  |
|Paraview                           |flow.vtu                           |
|Paraview surface                   |surface_flow.vtu                   |
+-----------------------------------------------------------------------+

Writing the forces breakdown file (forces_breakdown.dat).
+-------------------------------------------------------------------------------------------------------+
|  Inner_Iter|   Time_Iter|    rms[Rho]|   rms[RhoU]|   rms[RhoV]|   rms[RhoE]|          CL|          CD|
+-------------------------------------------------------------------------------------------------------+
|         271|           0|   -2.627031|    0.204832|   -0.122341|    2.844047|    0.498447|    0.008683|
|         272|           0|   -2.649824|    0.204927|   -0.106640|    2.819911|    0.498576|    0.008559|
|         273|           0|   -2.673324|    0.205420|   -0.090339|    2.793991|    0.498656|    0.008446|
|         274|           0|   -2.696676|    0.205873|   -0.075108|    2.766953|    0.498684|    0.008347|
|         275|           0|   -2.718864|    0.205875|   -0.062034|    2.739699|    0.498667|    0.008263|
|         276|           0|   -2.738492|    0.205138|   -0.051735|    2.713741|    0.498605|    0.008193|
|         277|           0|   -2.754614|    0.203468|   -0.044513|    2.690352|    0.498504|    0.008140|
|         278|           0|   -2.766808|    0.200688|   -0.040500|    2.670496|    0.498366|    0.008104|
|         279|           0|   -2.774258|    0.196578|   -0.039767|    2.655778|    0.498199|    0.008086|
|         280|           0|   -2.777258|    0.191059|   -0.042261|    2.646698|    0.498004|    0.008084|
+-----------------------------------------------------------------------+
|        File Writing Summary       |              Filename             |
+-----------------------------------------------------------------------+
|SU2 restart                        |solution_flow.dat                  |
|Paraview                           |flow.vtu                           |
|Paraview surface                   |surface_flow.vtu                   |
+-----------------------------------------------------------------------+

Writing the forces breakdown file (forces_breakdown.dat).
+-------------------------------------------------------------------------------------------------------+
|  Inner_Iter|   Time_Iter|    rms[Rho]|   rms[RhoU]|   rms[RhoV]|   rms[RhoE]|          CL|          CD|
+-------------------------------------------------------------------------------------------------------+
|         281|           0|   -2.776926|    0.184125|   -0.047929|    2.642649|    0.497792|    0.008099|
|         282|           0|   -2.773829|    0.175706|   -0.056611|    2.643271|    0.497568|    0.008129|
|         283|           0|   -2.769234|    0.165849|   -0.068173|    2.647163|    0.497339|    0.008175|
|         284|           0|   -2.764220|    0.154650|   -0.082414|    2.652961|    0.497110|    0.008232|
|         285|           0|   -2.759566|    0.142198|   -0.099159|    2.659532|    0.496889|    0.008303|
|         286|           0|   -2.755881|    0.128516|   -0.118123|    2.665924|    0.496680|    0.008383|
|         287|           0|   -2.753621|    0.113740|   -0.138828|    2.671407|    0.496492|    0.008471|
|         288|           0|   -2.753085|    0.098052|   -0.160861|    2.675446|    0.496327|    0.008566|
|         289|           0|   -2.754299|    0.081685|   -0.183603|    2.677906|    0.496193|    0.008665|
|         290|           0|   -2.757349|    0.064821|   -0.206257|    2.678615|    0.496093|    0.008767|
+-----------------------------------------------------------------------+
|        File Writing Summary       |              Filename             |
+-----------------------------------------------------------------------+
|SU2 restart                        |solution_flow.dat                  |
|Paraview                           |flow.vtu                           |
|Paraview surface                   |surface_flow.vtu                   |
+-----------------------------------------------------------------------+

Writing the forces breakdown file (forces_breakdown.dat).
+-------------------------------------------------------------------------------------------------------+
|  Inner_Iter|   Time_Iter|    rms[Rho]|   rms[RhoU]|   rms[RhoV]|   rms[RhoE]|          CL|          CD|
+-------------------------------------------------------------------------------------------------------+
|         291|           0|   -2.762472|    0.047799|   -0.228090|    2.677223|    0.496031|    0.008869|
|         292|           0|   -2.769469|    0.030882|   -0.248132|    2.673893|    0.496009|    0.008969|
|         293|           0|   -2.778016|    0.014377|   -0.265389|    2.668942|    0.496031|    0.009067|
|         294|           0|   -2.787976|   -0.001405|   -0.279091|    2.662429|    0.496097|    0.009159|
|         295|           0|   -2.799055|   -0.016159|   -0.288534|    2.654587|    0.496207|    0.009245|
|         296|           0|   -2.810880|   -0.029601|   -0.293493|    2.645735|    0.496358|    0.009322|
|         297|           0|   -2.823102|   -0.041502|   -0.294143|    2.636110|    0.496550|    0.009391|
|         298|           0|   -2.835201|   -0.051721|   -0.291014|    2.626130|    0.496780|    0.009449|
|         299|           0|   -2.846771|   -0.060118|   -0.284894|    2.616111|    0.497045|    0.009497|
|         300|           0|   -2.857326|   -0.066665|   -0.276628|    2.606457|    0.497342|    0.009533|
+-----------------------------------------------------------------------+
|        File Writing Summary       |              Filename             |
+-----------------------------------------------------------------------+
|SU2 restart                        |solution_flow.dat                  |
|Paraview                           |flow.vtu                           |
|Paraview surface                   |surface_flow.vtu                   |
+-----------------------------------------------------------------------+

Writing the forces breakdown file (forces_breakdown.dat).
+-------------------------------------------------------------------------------------------------------+
|  Inner_Iter|   Time_Iter|    rms[Rho]|   rms[RhoU]|   rms[RhoV]|   rms[RhoE]|          CL|          CD|
+-------------------------------------------------------------------------------------------------------+
|         301|           0|   -2.866548|   -0.071388|   -0.267019|    2.597421|    0.497668|    0.009558|
|         302|           0|   -2.874229|   -0.074417|   -0.256761|    2.589191|    0.498013|    0.009570|
|         303|           0|   -2.880281|   -0.075921|   -0.246414|    2.581901|    0.498378|    0.009571|
|         304|           0|   -2.884810|   -0.076116|   -0.236411|    2.575515|    0.498753|    0.009560|
|         305|           0|   -2.887969|   -0.075248|   -0.227036|    2.569983|    0.499137|    0.009539|
|         306|           0|   -2.890111|   -0.073540|   -0.218507|    2.565086|    0.499520|    0.009506|
|         307|           0|   -2.891517|   -0.071242|   -0.210968|    2.560689|    0.499900|    0.009464|
|         308|           0|   -2.892540|   -0.068569|   -0.204541|    2.556591|    0.500269|    0.009413|
|         309|           0|   -2.893399|   -0.065736|   -0.199289|    2.552706|    0.500626|    0.009355|
|         310|           0|   -2.894373|   -0.062954|   -0.195276|    2.548882|    0.500963|    0.009289|
+-----------------------------------------------------------------------+
|        File Writing Summary       |              Filename             |
+-----------------------------------------------------------------------+
|SU2 restart                        |solution_flow.dat                  |
|Paraview                           |flow.vtu                           |
|Paraview surface                   |surface_flow.vtu                   |
+-----------------------------------------------------------------------+

Writing the forces breakdown file (forces_breakdown.dat).
+-------------------------------------------------------------------------------------------------------+
|  Inner_Iter|   Time_Iter|    rms[Rho]|   rms[RhoU]|   rms[RhoV]|   rms[RhoE]|          CL|          CD|
+-------------------------------------------------------------------------------------------------------+
|         311|           0|   -2.895832|   -0.060412|   -0.192561|    2.544846|    0.501278|    0.009219|
|         312|           0|   -2.897863|   -0.058222|   -0.191193|    2.540595|    0.501566|    0.009143|
|         313|           0|   -2.900643|   -0.056529|   -0.191180|    2.536037|    0.501826|    0.009065|
|         314|           0|   -2.904169|   -0.055444|   -0.192573|    2.531239|    0.502053|    0.008984|
|         315|           0|   -2.908386|   -0.055028|   -0.195442|    2.526257|    0.502248|    0.008903|
|         316|           0|   -2.913108|   -0.055320|   -0.199800|    2.521377|    0.502406|    0.008822|
|         317|           0|   -2.918207|   -0.056407|   -0.205670|    2.516763|    0.502529|    0.008743|
|         318|           0|   -2.923599|   -0.058314|   -0.213087|    2.512511|    0.502616|    0.008665|
|         319|           0|   -2.929112|   -0.061055|   -0.222056|    2.508777|    0.502670|    0.008592|
|         320|           0|   -2.934496|   -0.064604|   -0.232545|    2.505796|    0.502691|    0.008522|
+-----------------------------------------------------------------------+
|        File Writing Summary       |              Filename             |
+-----------------------------------------------------------------------+
|SU2 restart                        |solution_flow.dat                  |
|Paraview                           |flow.vtu                           |
|Paraview surface                   |surface_flow.vtu                   |
+-----------------------------------------------------------------------+

Writing the forces breakdown file (forces_breakdown.dat).
+-------------------------------------------------------------------------------------------------------+
|  Inner_Iter|   Time_Iter|    rms[Rho]|   rms[RhoU]|   rms[RhoV]|   rms[RhoE]|          CL|          CD|
+-------------------------------------------------------------------------------------------------------+
|         321|           0|   -2.939533|   -0.068927|   -0.244476|    2.503712|    0.502684|    0.008458|
|         322|           0|   -2.944133|   -0.073918|   -0.257751|    2.502454|    0.502647|    0.008399|
|         323|           0|   -2.948205|   -0.079454|   -0.272191|    2.501950|    0.502587|    0.008346|
|         324|           0|   -2.951562|   -0.085391|   -0.287535|    2.502212|    0.502504|    0.008299|
|         325|           0|   -2.954282|   -0.091540|   -0.303366|    2.502973|    0.502403|    0.008259|
|         326|           0|   -2.956453|   -0.097692|   -0.319180|    2.503984|    0.502286|    0.008225|
|         327|           0|   -2.958083|   -0.103633|   -0.334325|    2.505094|    0.502159|    0.008199|
|         328|           0|   -2.959352|   -0.109144|   -0.348048|    2.506010|    0.502024|    0.008179|
|         329|           0|   -2.960459|   -0.113995|   -0.359555|    2.506444|    0.501886|    0.008166|
|         330|           0|   -2.961632|   -0.118010|   -0.368058|    2.506124|    0.501747|    0.008160|
+-----------------------------------------------------------------------+
|        File Writing Summary       |              Filename             |
+-----------------------------------------------------------------------+
|SU2 restart                        |solution_flow.dat                  |
|Paraview                           |flow.vtu                           |
|Paraview surface                   |surface_flow.vtu                   |
+-----------------------------------------------------------------------+

Writing the forces breakdown file (forces_breakdown.dat).
+-------------------------------------------------------------------------------------------------------+
|  Inner_Iter|   Time_Iter|    rms[Rho]|   rms[RhoU]|   rms[RhoV]|   rms[RhoE]|          CL|          CD|
+-------------------------------------------------------------------------------------------------------+
|         331|           0|   -2.963017|   -0.121042|   -0.372935|    2.504870|    0.501613|    0.008160|
|         332|           0|   -2.964822|   -0.123030|   -0.373913|    2.502467|    0.501486|    0.008165|
|         333|           0|   -2.967204|   -0.123948|   -0.371055|    2.498765|    0.501371|    0.008176|
|         334|           0|   -2.970363|   -0.123894|   -0.364794|    2.493586|    0.501267|    0.008192|
|         335|           0|   -2.974279|   -0.123023|   -0.355812|    2.486968|    0.501180|    0.008212|
|         336|           0|   -2.978950|   -0.121555|   -0.344949|    2.478959|    0.501108|    0.008236|
|         337|           0|   -2.984338|   -0.119737|   -0.333025|    2.469636|    0.501059|    0.008263|
|         338|           0|   -2.990349|   -0.117836|   -0.320886|    2.459161|    0.501028|    0.008293|
|         339|           0|   -2.996900|   -0.116137|   -0.309224|    2.447716|    0.501022|    0.008325|
|         340|           0|   -3.003788|   -0.114911|   -0.298604|    2.435663|    0.501039|    0.008358|
+-----------------------------------------------------------------------+
|        File Writing Summary       |              Filename             |
+-----------------------------------------------------------------------+
|SU2 restart                        |solution_flow.dat                  |
|Paraview                           |flow.vtu                           |
|Paraview surface                   |surface_flow.vtu                   |
+-----------------------------------------------------------------------+

Writing the forces breakdown file (forces_breakdown.dat).
+-------------------------------------------------------------------------------------------------------+
|  Inner_Iter|   Time_Iter|    rms[Rho]|   rms[RhoU]|   rms[RhoV]|   rms[RhoE]|          CL|          CD|
+-------------------------------------------------------------------------------------------------------+
|         341|           0|   -3.010683|   -0.114459|   -0.289436|    2.423528|    0.501080|    0.008393|
|         342|           0|   -3.017368|   -0.114993|   -0.282056|    2.411782|    0.501142|    0.008427|
|         343|           0|   -3.023592|   -0.116697|   -0.276697|    2.400988|    0.501230|    0.008463|
|         344|           0|   -3.028922|   -0.119734|   -0.273529|    2.391954|    0.501336|    0.008497|
[...]
|         405|           0|   -3.215969|   -0.373408|   -0.447413|    2.203494|    0.505822|    0.008281|
|         406|           0|   -3.213294|   -0.387251|   -0.460196|    2.211037|    0.505882|    0.008294|
|         407|           0|   -3.209883|   -0.403057|   -0.474891|    2.219979|    0.505943|    0.008305|
|         408|           0|   -3.206138|   -0.420645|   -0.491163|    2.229500|    0.506000|    0.008315|
|         409|           0|   -3.202752|   -0.439737|   -0.508552|    2.238486|    0.506057|    0.008325|
|         410|           0|   -3.199697|   -0.459907|   -0.526434|    2.246811|    0.506110|    0.008332|
+-----------------------------------------------------------------------+
|        File Writing Summary       |              Filename             |
+-----------------------------------------------------------------------+
|SU2 restart                        |solution_flow.dat                  |
|Paraview                           |flow.vtu                           |
|Paraview surface                   |surface_flow.vtu                   |
+-----------------------------------------------------------------------+

Writing the forces breakdown file (forces_breakdown.dat).
+-------------------------------------------------------------------------------------------------------+
|  Inner_Iter|   Time_Iter|    rms[Rho]|   rms[RhoU]|   rms[RhoV]|   rms[RhoE]|          CL|          CD|
+-------------------------------------------------------------------------------------------------------+
|         411|           0|   -3.197457|   -0.480569|   -0.544035|    2.253800|    0.506162|    0.008339|
|         412|           0|   -3.196185|   -0.500986|   -0.560432|    2.259214|    0.506209|    0.008344|
|         413|           0|   -3.196109|   -0.520235|   -0.574604|    2.262745|    0.506255|    0.008347|
|         414|           0|   -3.197229|   -0.537291|   -0.585590|    2.264378|    0.506296|    0.008349|
|         415|           0|   -3.199879|   -0.551142|   -0.592650|    2.263756|    0.506339|    0.008350|
|         416|           0|   -3.203903|   -0.560913|   -0.595379|    2.261034|    0.506379|    0.008348|
|         417|           0|   -3.209163|   -0.566286|   -0.593795|    2.256320|    0.506418|    0.008346|
|         418|           0|   -3.216023|   -0.567182|   -0.588475|    2.249254|    0.506454|    0.008341|
|         419|           0|   -3.224215|   -0.563858|   -0.580263|    2.240113|    0.506491|    0.008335|
|         420|           0|   -3.233611|   -0.557146|   -0.570138|    2.229028|    0.506524|    0.008328|
+-----------------------------------------------------------------------+
|        File Writing Summary       |              Filename             |
+-----------------------------------------------------------------------+
|SU2 restart                        |solution_flow.dat                  |
|Paraview                           |flow.vtu                           |
|Paraview surface                   |surface_flow.vtu                   |
+-----------------------------------------------------------------------+

Writing the forces breakdown file (forces_breakdown.dat).
+-------------------------------------------------------------------------------------------------------+
|  Inner_Iter|   Time_Iter|    rms[Rho]|   rms[RhoU]|   rms[RhoV]|   rms[RhoE]|          CL|          CD|
+-------------------------------------------------------------------------------------------------------+
|         421|           0|   -3.243808|   -0.548060|   -0.559088|    2.216425|    0.506558|    0.008319|
|         422|           0|   -3.254685|   -0.537658|   -0.547976|    2.202464|    0.506588|    0.008309|
|         423|           0|   -3.266047|   -0.526926|   -0.537542|    2.187341|    0.506621|    0.008298|
|         424|           0|   -3.277581|   -0.516612|   -0.528354|    2.171539|    0.506654|    0.008286|
|         425|           0|   -3.288525|   -0.507323|   -0.520809|    2.156020|    0.506690|    0.008273|
|         426|           0|   -3.298658|   -0.499484|   -0.515195|    2.141300|    0.506723|    0.008258|
|         427|           0|   -3.307649|   -0.493381|   -0.511743|    2.128038|    0.506758|    0.008244|
|         428|           0|   -3.315126|   -0.489188|   -0.510563|    2.117024|    0.506792|    0.008229|
|         429|           0|   -3.320821|   -0.487004|   -0.511729|    2.108882|    0.506828|    0.008213|
|         430|           0|   -3.324818|   -0.486895|   -0.515361|    2.103680|    0.506860|    0.008198|
+-----------------------------------------------------------------------+
|        File Writing Summary       |              Filename             |
+-----------------------------------------------------------------------+
|SU2 restart                        |solution_flow.dat                  |
|Paraview                           |flow.vtu                           |
|Paraview surface                   |surface_flow.vtu                   |
+-----------------------------------------------------------------------+

Writing the forces breakdown file (forces_breakdown.dat).
+-------------------------------------------------------------------------------------------------------+
|  Inner_Iter|   Time_Iter|    rms[Rho]|   rms[RhoU]|   rms[RhoV]|   rms[RhoE]|          CL|          CD|
+-------------------------------------------------------------------------------------------------------+
|         431|           0|   -3.327286|   -0.488848|   -0.521442|    2.101354|    0.506894|    0.008182|
|         432|           0|   -3.328290|   -0.492809|   -0.529950|    2.101806|    0.506927|    0.008167|
|         433|           0|   -3.327890|   -0.498647|   -0.540809|    2.104838|    0.506961|    0.008152|
|         434|           0|   -3.326468|   -0.506225|   -0.553912|    2.109790|    0.506993|    0.008137|
|         435|           0|   -3.324364|   -0.515333|   -0.569098|    2.116015|    0.507030|    0.008124|
|         436|           0|   -3.322241|   -0.525730|   -0.586164|    2.122480|    0.507064|    0.008110|
|         437|           0|   -3.320443|   -0.537090|   -0.604802|    2.128561|    0.507098|    0.008097|
|         438|           0|   -3.318997|   -0.548997|   -0.624564|    2.134110|    0.507131|    0.008085|
|         439|           0|   -3.318515|   -0.560991|   -0.644891|    2.138340|    0.507163|    0.008075|
|         440|           0|   -3.318786|   -0.572532|   -0.665024|    2.141387|    0.507192|    0.008064|
+-----------------------------------------------------------------------+
|        File Writing Summary       |              Filename             |
+-----------------------------------------------------------------------+
|SU2 restart                        |solution_flow.dat                  |
|Paraview                           |flow.vtu                           |
|Paraview surface                   |surface_flow.vtu                   |
+-----------------------------------------------------------------------+

Writing the forces breakdown file (forces_breakdown.dat).
+-------------------------------------------------------------------------------------------------------+
|  Inner_Iter|   Time_Iter|    rms[Rho]|   rms[RhoU]|   rms[RhoV]|   rms[RhoE]|          CL|          CD|
+-------------------------------------------------------------------------------------------------------+
|         441|           0|   -3.320068|   -0.583057|   -0.684067|    2.142894|    0.507220|    0.008056|
|         442|           0|   -3.322772|   -0.592049|   -0.701071|    2.142396|    0.507245|    0.008048|
|         443|           0|   -3.326975|   -0.599063|   -0.715081|    2.139763|    0.507272|    0.008043|
|         444|           0|   -3.332581|   -0.603778|   -0.725291|    2.135064|    0.507293|    0.008038|
|         445|           0|   -3.339536|   -0.606069|   -0.731274|    2.128319|    0.507313|    0.008035|
|         446|           0|   -3.347898|   -0.606041|   -0.732979|    2.119434|    0.507332|    0.008033|
|         447|           0|   -3.357383|   -0.603984|   -0.730806|    2.108645|    0.507350|    0.008032|
|         448|           0|   -3.368392|   -0.600327|   -0.725548|    2.095545|    0.507363|    0.008032|
|         449|           0|   -3.380003|   -0.595535|   -0.718114|    2.081048|    0.507377|    0.008034|
|         450|           0|   -3.392535|   -0.590175|   -0.709504|    2.064792|    0.507385|    0.008036|
+-----------------------------------------------------------------------+
|        File Writing Summary       |              Filename             |
+-----------------------------------------------------------------------+
|SU2 restart                        |solution_flow.dat                  |
|Paraview                           |flow.vtu                           |
|Paraview surface                   |surface_flow.vtu                   |
+-----------------------------------------------------------------------+

Writing the forces breakdown file (forces_breakdown.dat).
+-------------------------------------------------------------------------------------------------------+
|  Inner_Iter|   Time_Iter|    rms[Rho]|   rms[RhoU]|   rms[RhoV]|   rms[RhoE]|          CL|          CD|
+-------------------------------------------------------------------------------------------------------+
|         451|           0|   -3.405670|   -0.584751|   -0.700621|    2.047099|    0.507399|    0.008040|
|         452|           0|   -3.419163|   -0.579729|   -0.692207|    2.028328|    0.507411|    0.008045|
|         453|           0|   -3.432405|   -0.575493|   -0.684862|    2.009262|    0.507424|    0.008050|
|         454|           0|   -3.445130|   -0.572382|   -0.679044|    1.990401|    0.507436|    0.008055|
|         455|           0|   -3.456412|   -0.570666|   -0.675079|    1.973098|    0.507451|    0.008062|
|         456|           0|   -3.466040|   -0.570545|   -0.673170|    1.958039|    0.507465|    0.008069|
|         457|           0|   -3.474270|   -0.572197|   -0.673523|    1.945337|    0.507482|    0.008076|
|         458|           0|   -3.480831|   -0.575734|   -0.676214|    1.935723|    0.507497|    0.008083|
|         459|           0|   -3.484365|   -0.581216|   -0.681271|    1.931146|    0.507513|    0.008091|
|         460|           0|   -3.485976|   -0.588692|   -0.688727|    1.930358|    0.507530|    0.008097|
+-----------------------------------------------------------------------+
|        File Writing Summary       |              Filename             |
+-----------------------------------------------------------------------+
|SU2 restart                        |solution_flow.dat                  |
|Paraview                           |flow.vtu                           |
|Paraview surface                   |surface_flow.vtu                   |
+-----------------------------------------------------------------------+

Writing the forces breakdown file (forces_breakdown.dat).
+-------------------------------------------------------------------------------------------------------+
|  Inner_Iter|   Time_Iter|    rms[Rho]|   rms[RhoU]|   rms[RhoV]|   rms[RhoE]|          CL|          CD|
+-------------------------------------------------------------------------------------------------------+
|         461|           0|   -3.485546|   -0.598175|   -0.698551|    1.933374|    0.507549|    0.008105|
|         462|           0|   -3.483654|   -0.609650|   -0.710648|    1.939211|    0.507567|    0.008111|
|         463|           0|   -3.480130|   -0.622997|   -0.724847|    1.947745|    0.507591|    0.008118|
|         464|           0|   -3.475765|   -0.638091|   -0.740925|    1.957672|    0.507615|    0.008123|
|         465|           0|   -3.471681|   -0.654783|   -0.758586|    1.967183|    0.507644|    0.008128|
|         466|           0|   -3.467539|   -0.672722|   -0.777304|    1.976612|    0.507672|    0.008131|
|         467|           0|   -3.464164|   -0.691501|   -0.796435|    1.984873|    0.507705|    0.008135|
|         468|           0|   -3.461408|   -0.710578|   -0.815120|    1.992043|    0.507735|    0.008137|
|         469|           0|   -3.459842|   -0.729296|   -0.832435|    1.997413|    0.507768|    0.008139|
|         470|           0|   -3.459592|   -0.746871|   -0.847261|    2.000837|    0.507799|    0.008139|
+-----------------------------------------------------------------------+
|        File Writing Summary       |              Filename             |
+-----------------------------------------------------------------------+
|SU2 restart                        |solution_flow.dat                  |
|Paraview                           |flow.vtu                           |
|Paraview surface                   |surface_flow.vtu                   |
+-----------------------------------------------------------------------+

Writing the forces breakdown file (forces_breakdown.dat).
+-------------------------------------------------------------------------------------------------------+
|  Inner_Iter|   Time_Iter|    rms[Rho]|   rms[RhoU]|   rms[RhoV]|   rms[RhoE]|          CL|          CD|
+-------------------------------------------------------------------------------------------------------+
|         471|           0|   -3.460392|   -0.762440|   -0.858542|    2.002544|    0.507832|    0.008140|
|         472|           0|   -3.462681|   -0.775185|   -0.865499|    2.002096|    0.507864|    0.008139|
|         473|           0|   -3.466388|   -0.784444|   -0.867720|    1.999553|    0.507898|    0.008138|
|         474|           0|   -3.471881|   -0.789861|   -0.865362|    1.994543|    0.507928|    0.008136|
|         475|           0|   -3.478907|   -0.791392|   -0.859108|    1.987312|    0.507959|    0.008133|
|         476|           0|   -3.486915|   -0.789380|   -0.849803|    1.978438|    0.507990|    0.008129|
|         477|           0|   -3.495652|   -0.784480|   -0.838543|    1.968184|    0.508020|    0.008126|
|         478|           0|   -3.506299|   -0.777592|   -0.826458|    1.955297|    0.508047|    0.008121|
|         479|           0|   -3.517677|   -0.769510|   -0.814482|    1.940984|    0.508078|    0.008116|
|         480|           0|   -3.529042|   -0.760983|   -0.803318|    1.926129|    0.508106|    0.008110|
+-----------------------------------------------------------------------+
|        File Writing Summary       |              Filename             |
+-----------------------------------------------------------------------+
|SU2 restart                        |solution_flow.dat                  |
|Paraview                           |flow.vtu                           |
|Paraview surface                   |surface_flow.vtu                   |
+-----------------------------------------------------------------------+

Writing the forces breakdown file (forces_breakdown.dat).
+-------------------------------------------------------------------------------------------------------+
|  Inner_Iter|   Time_Iter|    rms[Rho]|   rms[RhoU]|   rms[RhoV]|   rms[RhoE]|          CL|          CD|
+-------------------------------------------------------------------------------------------------------+
|         481|           0|   -3.540336|   -0.752721|   -0.793501|    1.910887|    0.508135|    0.008105|
|         482|           0|   -3.552290|   -0.745290|   -0.785508|    1.894624|    0.508163|    0.008099|
|         483|           0|   -3.562896|   -0.739055|   -0.779621|    1.879698|    0.508191|    0.008093|
|         484|           0|   -3.571648|   -0.734294|   -0.776003|    1.866998|    0.508218|    0.008086|
|         485|           0|   -3.578434|   -0.731210|   -0.774808|    1.856990|    0.508246|    0.008079|
|         486|           0|   -3.584174|   -0.729963|   -0.776133|    1.848912|    0.508273|    0.008072|
|         487|           0|   -3.587817|   -0.730569|   -0.780023|    1.844198|    0.508300|    0.008066|
|         488|           0|   -3.588989|   -0.733009|   -0.786453|    1.843388|    0.508323|    0.008058|
|         489|           0|   -3.588540|   -0.737239|   -0.795452|    1.845469|    0.508346|    0.008052|
|         490|           0|   -3.587594|   -0.743165|   -0.806984|    1.849026|    0.508366|    0.008045|
+-----------------------------------------------------------------------+
|        File Writing Summary       |              Filename             |
+-----------------------------------------------------------------------+
|SU2 restart                        |solution_flow.dat                  |
|Paraview                           |flow.vtu                           |
|Paraview surface                   |surface_flow.vtu                   |
+-----------------------------------------------------------------------+

Writing the forces breakdown file (forces_breakdown.dat).
+-------------------------------------------------------------------------------------------------------+
|  Inner_Iter|   Time_Iter|    rms[Rho]|   rms[RhoU]|   rms[RhoV]|   rms[RhoE]|          CL|          CD|
+-------------------------------------------------------------------------------------------------------+
|         491|           0|   -3.585291|   -0.750608|   -0.820931|    1.854837|    0.508387|    0.008039|
|         492|           0|   -3.581946|   -0.759341|   -0.837138|    1.862329|    0.508406|    0.008032|
|         493|           0|   -3.579208|   -0.769233|   -0.855502|    1.869072|    0.508424|    0.008026|
|         494|           0|   -3.576498|   -0.779853|   -0.875640|    1.875788|    0.508441|    0.008019|
|         495|           0|   -3.574775|   -0.790837|   -0.897115|    1.881313|    0.508460|    0.008014|
|         496|           0|   -3.573963|   -0.801709|   -0.919336|    1.885653|    0.508473|    0.008008|
|         497|           0|   -3.574202|   -0.811983|   -0.941559|    1.888541|    0.508486|    0.008004|
|         498|           0|   -3.575359|   -0.821184|   -0.962739|    1.890017|    0.508497|    0.007999|
|         499|           0|   -3.578190|   -0.828911|   -0.981765|    1.889257|    0.508509|    0.007995|

----------------------------- Solver Exit -------------------------------

Maximum number of iterations reached (ITER = 500) before convergence.
+-----------------------------------------------------------------------+
|      Convergence Field     |     Value    |   Criterion  |  Converged |
+-----------------------------------------------------------------------+
|                  Cauchy[CD]|   0.000884185|       < 1e-10|          No|
+-----------------------------------------------------------------------+
-------------------------------------------------------------------------
+-----------------------------------------------------------------------+
|        File Writing Summary       |              Filename             |
+-----------------------------------------------------------------------+
|SU2 restart                        |solution_flow.dat                  |
|Paraview                           |flow.vtu                           |
|Paraview surface                   |surface_flow.vtu                   |
+-----------------------------------------------------------------------+

Writing the forces breakdown file (forces_breakdown.dat).

------------------------- Solver Postprocessing -------------------------
Deleted CNumerics container.
Deleted CIntegration container.
Deleted CSolver container.
Deleted CIteration container.
Deleted CInterpolator container.
Deleted CInterface container.
Deleted CGeometry container.
Deleted CFreeFormDefBox class.
Deleted CSurfaceMovement class.
Deleted CVolumetricMovement class.
Deleted CConfig container.
Deleted nInst container.
Deleted COutput class.
-------------------------------------------------------------------------

------------------------- Exit Success (SU2_CFD) ------------------------

