
-------------------------------------------------------------------------
|    ___ _   _ ___                                                      |
|   / __| | | |_  )   Release 7.0.3 "Blackbird"                         |
|   \__ \ |_| |/ /                                                      |
|   |___/\___//___|   Suite (Computational Fluid Dynamics Code)         |
|                                                                       |
-------------------------------------------------------------------------
| SU2 Project Website: https://su2code.github.io                        |
|                                                                       |
| The SU2 Project is maintained by the SU2 Foundation                   |
| (http://su2foundation.org)                                            |
-------------------------------------------------------------------------
| Copyright 2012-2020, SU2 Contributors                                 |
|                                                                       |
| SU2 is free software; you can redistribute it and/or                  |
| modify it under the terms of the GNU Lesser General Public            |
| License as published by the Free Software Foundation; either          |
| version 2.1 of the License, or (at your option) any later version.    |
|                                                                       |
| SU2 is distributed in the hope that it will be useful,                |
| but WITHOUT ANY WARRANTY; without even the implied warranty of        |
| MERCHANTABILITY or FITNESS FOR A PARTICULAR PURPOSE. See the GNU      |
| Lesser General Public License for more details.                       |
|                                                                       |
| You should have received a copy of the GNU Lesser General Public      |
| License along with SU2. If not, see <http://www.gnu.org/licenses/>.   |
-------------------------------------------------------------------------

Parsing config file for zone 0

----------------- Physical Case Definition ( Zone 0 ) -------------------
Compressible Euler equations.
Mach number: 0.294.
Angle of attack (AoA): 10 deg, and angle of sideslip (AoS): 0 deg.
No restart solution, use the values at infinity (freestream).
Dimensional simulation.
The reference area is 10 m^2.
The semi-span will be computed using the max y(3D) value.
The reference length is 1 m.
Reference origin for moment evaluation is (0, 0, 0).
Surface(s) where the force coefficients are evaluated: Wing_1.

Surface(s) where the objective function is evaluated: airfoil.
Surface(s) plotted in the output file: Wing_1.
Surface(s) to be analyzed in detail: airfoil.
Surface(s) affected by the design variables: Wing_1.
Input mesh file name: deformed.su2

--------------- Space Numerical Integration ( Zone 0 ) ------------------
Roe (with entropy fix = 0) solver for the flow inviscid terms.
Roe with DDES's FD low-dissipation function.
Second order integration in space, with slope limiter.
Venkatakrishnan slope-limiting method, with constant: 0.05. 
The reference element size is: 1. 
Gradient for upwind reconstruction: Green-Gauss.
Gradient for viscous and source terms: Green-Gauss.

--------------- Time Numerical Integration  ( Zone 0 ) ------------------
Local time stepping (steady state simulation).
Euler implicit method for the flow equations.
FGMRES is used for solving the linear system.
Using a ILU(0) preconditioning.
Convergence criteria of the linear solver: 1e-06.
Max number of linear iterations: 5.
V Multigrid Cycle, with 3 multigrid levels.
Damping factor for the residual restriction: 0.75.
Damping factor for the correction prolongation: 0.75.
No CFL adaptation.
+-------------------------------------------+
|  MG Level| Presmooth|PostSmooth|CorrectSmo|
+-------------------------------------------+
|         0|         1|         0|         0|
|         1|         2|         0|         0|
|         2|         3|         0|         0|
|         3|         3|         0|         0|
+-------------------------------------------+
Courant-Friedrichs-Lewy number:        1

------------------ Convergence Criteria  ( Zone 0 ) ---------------------
Maximum number of solver subiterations: 1000.
Begin convergence monitoring at iteration 10.
Residual minimum value: 1e-8.
Cauchy series min. value: 1e-10.
Number of Cauchy elements: 100.
Begin windowed time average at iteration 15.

-------------------- Output Information ( Zone 0 ) ----------------------
Writing solution files every 10 iterations.
Writing the convergence history file every 1 inner iterations.
Writing the screen convergence history every 1 inner iterations.
The tabular file format is Tecplot (.dat).
Convergence history file name: history.
Forces breakdown file name: forces_breakdown.dat.
Surface file name: surface_flow.
Volume file name: flow.
Restart file name: solution_flow.dat.

------------- Config File Boundary Information ( Zone 0 ) ---------------
+-----------------------------------------------------------------------+
|                        Marker Type|                        Marker Name|
+-----------------------------------------------------------------------+
|                         Euler wall|                             Wing_1|
+-----------------------------------------------------------------------+
|                          Far-field|                           Farfield|
+-----------------------------------------------------------------------+
|                     Symmetry plane|                                  0|
+-----------------------------------------------------------------------+
|           Deformable mesh boundary|                            airfoil|
+-----------------------------------------------------------------------+

-------------------- Output Preprocessing ( Zone 0 ) --------------------
Screen output fields: INNER_ITER, TIME_ITER, RMS_DENSITY, RMS_MOMENTUM-X, RMS_MOMENTUM-Y, RMS_ENERGY, LIFT, DRAG
  Info: Ignoring the following history output groups:
  TIME_ITER
History output group(s): ITER, RMS_RES, AERO_COEFF
Warning: No (valid) fields chosen for convergence monitoring. Convergence monitoring inactive.
Warning: No (valid) fields chosen for time convergence monitoring. Time convergence monitoring inactive.
Volume output fields: COORDINATES, SOLUTION, PRIMITIVE

------------------- Geometry Preprocessing ( Zone 0 ) -------------------
Three dimensional problem.
142678 grid points before partitioning.
739205 volume elements before partitioning.
2 surface markers.
99234 boundary elements in index 0 (Marker = Wing_1).
1280 boundary elements in index 1 (Marker = Farfield).
Executing the partitioning functions.
Building the graph adjacency structure.
Calling ParMETIS... graph partitioning complete (18884 edge cuts).
Distributing ParMETIS coloring.
Rebalancing vertices.
Rebalancing volume element connectivity.
Rebalancing markers and surface elements.
153425 vertices including ghost points. 
767118 interior elements including halo cells. 
767118 tetrahedra.
Establishing MPI communication patterns.
Setting point connectivity.
Renumbering points (Reverse Cuthill McKee Ordering).
Recomputing point connectivity.
Setting element connectivity.
Checking the numerical grid orientation.
Identifying edges and vertices.
Computing centers of gravity.
Setting the control volume structure.
Volume of the computational grid: 587307.
Searching for the closest normal neighbors to the surfaces.
Storing a mapping from global to local point index.
Compute the surface curvature.
Max K: 955.222. Mean K: 12.8884. Standard deviation K: 55.0111.
Checking for periodicity.
Computing mesh quality statistics for the dual control volumes.
+--------------------------------------------------------------+
|           Mesh Quality Metric|        Minimum|        Maximum|
+--------------------------------------------------------------+
|    Orthogonality Angle (deg.)|         46.579|        85.7733|
|     CV Face Area Aspect Ratio|        1.42429|        36.9359|
|           CV Sub-Volume Ratio|        1.02913|        142.676|
+--------------------------------------------------------------+
Setting the multigrid structure.
+-------------------------------------------+
|  MG Level|       CVs|Aggl. Rate|       CFL|
+-------------------------------------------+
|         0|    153425|    1/1.00|         1|
|         1|     27876|     1/5.5|  0.849577|
|         2|      6802|     1/4.1|  0.796335|
Finding max control volume width.
Communicating number of neighbors.
Semi-span length = 4.99134 m.
Wetted area = 42.1826 m^2.
Area projection in the x-plane = 3.07391 m^2, y-plane = 1.4749 m^2, z-plane = 20.1015 m^2.
Max. coordinate in the x-direction = 1.02241 m, y-direction = 4.99134 m, z-direction = 0.467144 m.
Min. coordinate in the x-direction = -1.0241 m, y-direction = -4.99077 m, z-direction = -0.11949 m.
Checking if Euler & Symmetry markers are straight/plane:
Boundary marker Wing_1 is NOT a single plane.
Boundary marker 0 is a single plane.

-------------------- Solver Preprocessing ( Zone 0 ) --------------------
Inviscid flow: Computing density based on free-stream
temperature and pressure using the ideal gas law.
Force coefficients computed using free-stream values.

-- Models:
+------------------------------------------------------------------------------+
|          Viscosity Model|        Conductivity Model|              Fluid Model|
+------------------------------------------------------------------------------+
|                        -|                         -|             STANDARD_AIR|
+------------------------------------------------------------------------------+
-- Fluid properties:
+------------------------------------------------------------------------------+
|                  Name|    Dim. value|    Ref. value|      Unit|Non-dim. value|
+------------------------------------------------------------------------------+
|          Gas Constant|       287.058|             1|  N.m/kg.K|       287.058|
|      Spec. Heat Ratio|             -|             -|         -|           1.4|
+------------------------------------------------------------------------------+
-- Initial and free-stream conditions:
+------------------------------------------------------------------------------+
|                  Name|    Dim. value|    Ref. value|      Unit|Non-dim. value|
+------------------------------------------------------------------------------+
|       Static Pressure|        101325|             1|        Pa|        101325|
|               Density|       1.22498|             1|    kg/m^3|       1.22498|
|           Temperature|        288.15|             1|         K|        288.15|
|          Total Energy|        211794|             1|   m^2/s^2|        211794|
|            Velocity-X|       98.5274|             1|       m/s|       98.5274|
|            Velocity-Y|             0|             1|       m/s|             0|
|            Velocity-Z|        17.373|             1|       m/s|        17.373|
|    Velocity Magnitude|       100.047|             1|       m/s|       100.047|
+------------------------------------------------------------------------------+
|           Mach Number|             -|             -|         -|         0.294|
+------------------------------------------------------------------------------+
Initialize Jacobian structure (Euler). MG level: 0.
Initialize Jacobian structure (Euler). MG level: 1.
Initialize Jacobian structure (Euler). MG level: 2.

------------------- Numerics Preprocessing ( Zone 0 ) -------------------

----------------- Integration Preprocessing ( Zone 0 ) ------------------

------------------- Iteration Preprocessing ( Zone 0 ) ------------------
Euler/Navier-Stokes/RANS fluid iteration.

------------------------------ Begin Solver -----------------------------

Simulation Run using the Single-zone Driver
+-------------------------------------------------------------------------------------------------------+
|  Inner_Iter|   Time_Iter|    rms[Rho]|   rms[RhoU]|   rms[RhoV]|   rms[RhoE]|          CL|          CD|
+-------------------------------------------------------------------------------------------------------+
|           0|           0|   -1.664201|    0.504157|   -0.371033|    3.804899|    2.088319|    0.938959|
|           1|           0|   -1.772409|    0.413672|   -0.140925|    3.696985|    3.636709|    1.621023|
|           2|           0|   -1.775327|    0.444727|    0.049044|    3.695826|    4.716932|    2.080843|
|           3|           0|   -1.721100|    0.529896|    0.165833|    3.750850|    5.412198|    2.356869|
|           4|           0|   -1.658330|    0.625788|    0.261407|    3.813998|    5.800801|    2.485702|
|           5|           0|   -1.599968|    0.722310|    0.353643|    3.872914|    5.953557|    2.501575|
|           6|           0|   -1.546316|    0.817125|    0.446876|    3.927348|    5.931097|    2.434686|
|           7|           0|   -1.496355|    0.908410|    0.540668|    3.978213|    5.784362|    2.310655|
|           8|           0|   -1.449863|    0.994644|    0.633531|    4.025622|    5.556085|    2.151005|
|           9|           0|   -1.407189|    1.074662|    0.723913|    4.069128|    5.280899|    1.973302|
|          10|           0|   -1.369116|    1.147860|    0.810613|    4.107885|    4.983802|    1.790587|
+-----------------------------------------------------------------------+
|        File Writing Summary       |              Filename             |
+-----------------------------------------------------------------------+
|SU2 restart                        |solution_flow.dat                  |
|Paraview                           |flow.vtu                           |
|Paraview surface                   |surface_flow.vtu                   |
+-----------------------------------------------------------------------+

Writing the forces breakdown file (forces_breakdown.dat).
+-------------------------------------------------------------------------------------------------------+
|  Inner_Iter|   Time_Iter|    rms[Rho]|   rms[RhoU]|   rms[RhoV]|   rms[RhoE]|          CL|          CD|
+-------------------------------------------------------------------------------------------------------+
|          11|           0|   -1.336089|    1.214076|    0.892657|    4.141382|    4.681353|    1.611546|
|          12|           0|   -1.308671|    1.273235|    0.969380|    4.168960|    4.384413|    1.441847|
|          13|           0|   -1.287116|    1.325458|    1.040250|    4.190249|    4.099175|    1.284549|
|          14|           0|   -1.271408|    1.370906|    1.104892|    4.205102|    3.828018|    1.140582|
|          15|           0|   -1.261375|    1.409753|    1.163183|    4.213498|    3.570698|    1.009458|
|          16|           0|   -1.256460|    1.442169|    1.215038|    4.215729|    3.325294|    0.889810|
|          17|           0|   -1.255574|    1.468287|    1.260477|    4.212618|    3.089074|    0.779836|
|          18|           0|   -1.256941|    1.488315|    1.299511|    4.205778|    2.859065|    0.677632|
|          19|           0|   -1.258045|    1.502399|    1.332130|    4.197855|    2.632533|    0.581422|
|          20|           0|   -1.256060|    1.510798|    1.358516|    4.192373|    2.407294|    0.489722|
+-----------------------------------------------------------------------+
|        File Writing Summary       |              Filename             |
+-----------------------------------------------------------------------+
|SU2 restart                        |solution_flow.dat                  |
|Paraview                           |flow.vtu                           |
|Paraview surface                   |surface_flow.vtu                   |
+-----------------------------------------------------------------------+

Writing the forces breakdown file (forces_breakdown.dat).
+-------------------------------------------------------------------------------------------------------+
|  Inner_Iter|   Time_Iter|    rms[Rho]|   rms[RhoU]|   rms[RhoV]|   rms[RhoE]|          CL|          CD|
+-------------------------------------------------------------------------------------------------------+
|          21|           0|   -1.248416|    1.513730|    1.378757|    4.193277|    2.181862|    0.401403|
|          22|           0|   -1.233473|    1.511655|    1.393077|    4.203877|    1.955621|    0.315744|
|          23|           0|   -1.211920|    1.505359|    1.401653|    4.224430|    1.728742|    0.232408|
|          24|           0|   -1.186128|    1.495070|    1.404929|    4.252180|    1.502171|    0.151419|
|          25|           0|   -1.159038|    1.481666|    1.403292|    4.283166|    1.277435|    0.073079|
|          26|           0|   -1.133343|    1.466257|    1.397168|    4.313628|    1.056531|   -0.002100|
|          27|           0|   -1.111056|    1.449927|    1.387006|    4.340713|    0.841739|   -0.073485|
|          28|           0|   -1.093413|    1.433498|    1.373757|    4.362714|    0.635432|   -0.140397|
|          29|           0|   -1.080711|    1.417535|    1.357859|    4.379133|    0.439975|   -0.202152|
|          30|           0|   -1.073119|    1.402461|    1.339965|    4.389606|    0.257581|   -0.258127|
+-----------------------------------------------------------------------+
|        File Writing Summary       |              Filename             |
+-----------------------------------------------------------------------+
|SU2 restart                        |solution_flow.dat                  |
|Paraview                           |flow.vtu                           |
|Paraview surface                   |surface_flow.vtu                   |
+-----------------------------------------------------------------------+

Writing the forces breakdown file (forces_breakdown.dat).
+-------------------------------------------------------------------------------------------------------+
|  Inner_Iter|   Time_Iter|    rms[Rho]|   rms[RhoU]|   rms[RhoV]|   rms[RhoE]|          CL|          CD|
+-------------------------------------------------------------------------------------------------------+
|          31|           0|   -1.069678|    1.388552|    1.320380|    4.395000|    0.090280|   -0.307772|
|          32|           0|   -1.069322|    1.376697|    1.299941|    4.396286|   -0.060147|   -0.350645|
|          33|           0|   -1.070622|    1.368174|    1.279106|    4.394915|   -0.192185|   -0.386424|
|          34|           0|   -1.071044|    1.363425|    1.258933|    4.393316|   -0.304600|   -0.414887|
|          35|           0|   -1.068778|    1.363319|    1.240491|    4.393587|   -0.396444|   -0.435918|
|          36|           0|   -1.063372|    1.368909|    1.227181|    4.396669|   -0.467035|   -0.449503|
|          37|           0|   -1.054532|    1.381646|    1.221918|    4.403363|   -0.515951|   -0.455708|
|          38|           0|   -1.043524|    1.401548|    1.228831|    4.412570|   -0.542999|   -0.454667|
|          39|           0|   -1.031691|    1.427091|    1.249048|    4.423270|   -0.548179|   -0.446569|
|          40|           0|   -1.020997|    1.454788|    1.280444|    4.433271|   -0.531700|   -0.431656|
+-----------------------------------------------------------------------+
|        File Writing Summary       |              Filename             |
+-----------------------------------------------------------------------+
|SU2 restart                        |solution_flow.dat                  |
|Paraview                           |flow.vtu                           |
|Paraview surface                   |surface_flow.vtu                   |
+-----------------------------------------------------------------------+

Writing the forces breakdown file (forces_breakdown.dat).
+-------------------------------------------------------------------------------------------------------+
|  Inner_Iter|   Time_Iter|    rms[Rho]|   rms[RhoU]|   rms[RhoV]|   rms[RhoE]|          CL|          CD|
+-------------------------------------------------------------------------------------------------------+
|          41|           0|   -1.013607|    1.482226|    1.319802|    4.440113|   -0.494002|   -0.410224|
|          42|           0|   -1.010604|    1.508433|    1.362437|    4.442546|   -0.435718|   -0.382608|
|          43|           0|   -1.012131|    1.531404|    1.403772|    4.439994|   -0.357681|   -0.349191|
|          44|           0|   -1.018037|    1.549525|    1.441146|    4.432421|   -0.260925|   -0.310400|
|          45|           0|   -1.028256|    1.562554|    1.472817|    4.419863|   -0.146682|   -0.266711|
|          46|           0|   -1.039468|    1.569436|    1.497627|    4.405455|   -0.016398|   -0.218645|
|          47|           0|   -1.050704|    1.570656|    1.515381|    4.390637|    0.128255|   -0.166781|
|          48|           0|   -1.059441|    1.565622|    1.526263|    4.378370|    0.285429|   -0.111743|
|          49|           0|   -1.062570|    1.554639|    1.530358|    4.372798|    0.453132|   -0.054188|
|          50|           0|   -1.059481|    1.536919|    1.527431|    4.374994|    0.629212|    0.005179|
+-----------------------------------------------------------------------+
|        File Writing Summary       |              Filename             |
+-----------------------------------------------------------------------+
|SU2 restart                        |solution_flow.dat                  |
|Paraview                           |flow.vtu                           |
|Paraview surface                   |surface_flow.vtu                   |
+-----------------------------------------------------------------------+

Writing the forces breakdown file (forces_breakdown.dat).
+-------------------------------------------------------------------------------------------------------+
|  Inner_Iter|   Time_Iter|    rms[Rho]|   rms[RhoU]|   rms[RhoV]|   rms[RhoE]|          CL|          CD|
+-------------------------------------------------------------------------------------------------------+
|          51|           0|   -1.051251|    1.513158|    1.518206|    4.384354|    0.811403|    0.065623|
|          52|           0|   -1.039086|    1.483921|    1.502646|    4.399546|    0.997371|    0.126386|
|          53|           0|   -1.025583|    1.451315|    1.482247|    4.417137|    1.184742|    0.186702|
|          54|           0|   -1.013223|    1.418255|    1.458471|    4.434048|    1.371097|    0.245800|
|          55|           0|   -1.003756|    1.388153|    1.433125|    4.447930|    1.554064|    0.302923|
|          56|           0|   -0.998036|    1.364578|    1.409161|    4.457665|    1.731322|    0.357338|
|          57|           0|   -0.996151|    1.352505|    1.390287|    4.463012|    1.900671|    0.408359|
|          58|           0|   -0.999728|    1.351755|    1.380580|    4.462012|    2.060054|    0.455350|
|          59|           0|   -1.007566|    1.361682|    1.382172|    4.455894|    2.207574|    0.497740|
|          60|           0|   -1.019291|    1.378633|    1.393830|    4.444810|    2.341542|    0.535035|
+-----------------------------------------------------------------------+
|        File Writing Summary       |              Filename             |
+-----------------------------------------------------------------------+
|SU2 restart                        |solution_flow.dat                  |
|Paraview                           |flow.vtu                           |
|Paraview surface                   |surface_flow.vtu                   |
+-----------------------------------------------------------------------+

Writing the forces breakdown file (forces_breakdown.dat).
+-------------------------------------------------------------------------------------------------------+
|  Inner_Iter|   Time_Iter|    rms[Rho]|   rms[RhoU]|   rms[RhoV]|   rms[RhoE]|          CL|          CD|
+-------------------------------------------------------------------------------------------------------+
|          61|           0|   -1.034108|    1.399435|    1.412582|    4.429284|    2.460519|    0.566829|
|          62|           0|   -1.050440|    1.421032|    1.435020|    4.410549|    2.563333|    0.592811|
|          63|           0|   -1.066868|    1.440967|    1.457859|    4.389857|    2.649091|    0.612767|
|          64|           0|   -1.082242|    1.458833|    1.479113|    4.368410|    2.717189|    0.626588|
|          65|           0|   -1.096667|    1.473355|    1.497216|    4.346319|    2.767317|    0.634265|
|          66|           0|   -1.108052|    1.483623|    1.511518|    4.326398|    2.799449|    0.635887|
|          67|           0|   -1.115550|    1.489421|    1.521647|    4.310306|    2.813854|    0.631638|
|          68|           0|   -1.120254|    1.491371|    1.527589|    4.298001|    2.811061|    0.621792|
|          69|           0|   -1.123003|    1.489686|    1.529166|    4.289636|    2.791850|    0.606704|
|          70|           0|   -1.124812|    1.483921|    1.526307|    4.284612|    2.757234|    0.586806|
+-----------------------------------------------------------------------+
|        File Writing Summary       |              Filename             |
+-----------------------------------------------------------------------+
|SU2 restart                        |solution_flow.dat                  |
|Paraview                           |flow.vtu                           |
|Paraview surface                   |surface_flow.vtu                   |
+-----------------------------------------------------------------------+

Writing the forces breakdown file (forces_breakdown.dat).
+-------------------------------------------------------------------------------------------------------+
|  Inner_Iter|   Time_Iter|    rms[Rho]|   rms[RhoU]|   rms[RhoV]|   rms[RhoE]|          CL|          CD|
+-------------------------------------------------------------------------------------------------------+
|          71|           0|   -1.125798|    1.473956|    1.519198|    4.283257|    2.708416|    0.562586|
|          72|           0|   -1.127134|    1.460382|    1.507970|    4.283727|    2.646772|    0.534587|
|          73|           0|   -1.128462|    1.442937|    1.492844|    4.286220|    2.573810|    0.503391|
|          74|           0|   -1.130122|    1.421562|    1.474403|    4.289766|    2.491123|    0.469600|
|          75|           0|   -1.132716|    1.396250|    1.452889|    4.293098|    2.400391|    0.433830|
|          76|           0|   -1.136622|    1.367599|    1.428886|    4.295337|    2.303331|    0.396700|
|          77|           0|   -1.142084|    1.336094|    1.402894|    4.295820|    2.201672|    0.358819|
|          78|           0|   -1.149280|    1.303677|    1.376731|    4.294016|    2.097115|    0.320772|
|          79|           0|   -1.158795|    1.271194|    1.351867|    4.289221|    1.991299|    0.283113|
|          80|           0|   -1.169963|    1.241125|    1.329472|    4.282078|    1.885773|    0.246354|
+-----------------------------------------------------------------------+
|        File Writing Summary       |              Filename             |
+-----------------------------------------------------------------------+
|SU2 restart                        |solution_flow.dat                  |
|Paraview                           |flow.vtu                           |
|Paraview surface                   |surface_flow.vtu                   |
+-----------------------------------------------------------------------+

Writing the forces breakdown file (forces_breakdown.dat).
+-------------------------------------------------------------------------------------------------------+
|  Inner_Iter|   Time_Iter|    rms[Rho]|   rms[RhoU]|   rms[RhoV]|   rms[RhoE]|          CL|          CD|
+-------------------------------------------------------------------------------------------------------+
|          81|           0|   -1.183055|    1.216375|    1.310724|    4.272240|    1.781991|    0.210962|
|          82|           0|   -1.197674|    1.198054|    1.296575|    4.259831|    1.681299|    0.177356|
|          83|           0|   -1.213004|    1.188028|    1.287479|    4.245690|    1.584925|    0.145901|
|          84|           0|   -1.228924|    1.187152|    1.283014|    4.229946|    1.493949|    0.116906|
|          85|           0|   -1.245488|    1.194231|    1.282150|    4.212433|    1.409305|    0.090619|
|          86|           0|   -1.262290|    1.207359|    1.283643|    4.193538|    1.331785|    0.067232|
|          87|           0|   -1.279482|    1.223452|    1.286334|    4.173099|    1.262023|    0.046880|
|          88|           0|   -1.296648|    1.239817|    1.289357|    4.151517|    1.200508|    0.029639|
|          89|           0|   -1.312970|    1.256331|    1.291922|    4.129889|    1.147593|    0.015539|
|          90|           0|   -1.328050|    1.271147|    1.293637|    4.108990|    1.103500|    0.004562|
+-----------------------------------------------------------------------+
|        File Writing Summary       |              Filename             |
+-----------------------------------------------------------------------+
|SU2 restart                        |solution_flow.dat                  |
|Paraview                           |flow.vtu                           |
|Paraview surface                   |surface_flow.vtu                   |
+-----------------------------------------------------------------------+

Writing the forces breakdown file (forces_breakdown.dat).
+-------------------------------------------------------------------------------------------------------+
|  Inner_Iter|   Time_Iter|    rms[Rho]|   rms[RhoU]|   rms[RhoV]|   rms[RhoE]|          CL|          CD|
+-------------------------------------------------------------------------------------------------------+
|          91|           0|   -1.341603|    1.283661|    1.293995|    4.089271|    1.068331|   -0.003353|
|          92|           0|   -1.353324|    1.293357|    1.292862|    4.071263|    1.042074|   -0.008302|
|          93|           0|   -1.363205|    1.300477|    1.290240|    4.055445|    1.024614|   -0.010410|
|          94|           0|   -1.371480|    1.305485|    1.286193|    4.042041|    1.015733|   -0.009836|
|          95|           0|   -1.378751|    1.307740|    1.280878|    4.030560|    1.015128|   -0.006761|
|          96|           0|   -1.386039|    1.307220|    1.274260|    4.020064|    1.022409|   -0.001391|
|          97|           0|   -1.393702|    1.304831|    1.266340|    4.010261|    1.037150|    0.006066|
|          98|           0|   -1.401981|    1.300637|    1.257492|    4.000791|    1.058850|    0.015388|
|          99|           0|   -1.411008|    1.294258|    1.247346|    3.991491|    1.086979|    0.026347|
|         100|           0|   -1.421061|    1.286056|    1.236053|    3.982090|    1.120997|    0.038721|
+-----------------------------------------------------------------------+
|        File Writing Summary       |              Filename             |
+-----------------------------------------------------------------------+
|SU2 restart                        |solution_flow.dat                  |
|Paraview                           |flow.vtu                           |
|Paraview surface                   |surface_flow.vtu                   |
+-----------------------------------------------------------------------+

Writing the forces breakdown file (forces_breakdown.dat).
+-------------------------------------------------------------------------------------------------------+
|  Inner_Iter|   Time_Iter|    rms[Rho]|   rms[RhoU]|   rms[RhoV]|   rms[RhoE]|          CL|          CD|
+-------------------------------------------------------------------------------------------------------+
|         101|           0|   -1.431887|    1.275881|    1.223793|    3.972881|    1.160287|    0.052275|
|         102|           0|   -1.442723|    1.263542|    1.210803|    3.964769|    1.204233|    0.066786|
|         103|           0|   -1.453605|    1.249425|    1.197425|    3.957579|    1.252182|    0.082027|
|         104|           0|   -1.465133|    1.234082|    1.183686|    3.950406|    1.303469|    0.097780|
|         105|           0|   -1.476540|    1.216859|    1.169610|    3.943984|    1.357432|    0.113836|
|         106|           0|   -1.487805|    1.197727|    1.155320|    3.938233|    1.413395|    0.129992|
|         107|           0|   -1.498969|    1.177634|    1.140878|    3.932768|    1.470699|    0.146058|
|         108|           0|   -1.510160|    1.157238|    1.126501|    3.927346|    1.528687|    0.161855|
|         109|           0|   -1.521241|    1.137105|    1.112259|    3.921942|    1.586713|    0.177214|
|         110|           0|   -1.532404|    1.117937|    1.098440|    3.916063|    1.644170|    0.191983|
+-----------------------------------------------------------------------+
|        File Writing Summary       |              Filename             |
+-----------------------------------------------------------------------+
|SU2 restart                        |solution_flow.dat                  |
|Paraview                           |flow.vtu                           |
|Paraview surface                   |surface_flow.vtu                   |
+-----------------------------------------------------------------------+

Writing the forces breakdown file (forces_breakdown.dat).
+-------------------------------------------------------------------------------------------------------+
|  Inner_Iter|   Time_Iter|    rms[Rho]|   rms[RhoU]|   rms[RhoV]|   rms[RhoE]|          CL|          CD|
+-------------------------------------------------------------------------------------------------------+
|         111|           0|   -1.543306|    1.100525|    1.085355|    3.909811|    1.700465|    0.206023|
|         112|           0|   -1.554537|    1.085386|    1.073591|    3.902475|    1.755034|    0.219208|
|         113|           0|   -1.565056|    1.073304|    1.063532|    3.895015|    1.807339|    0.231427|
|         114|           0|   -1.574561|    1.064787|    1.055464|    3.887598|    1.856889|    0.242584|
|         115|           0|   -1.583319|    1.060208|    1.049676|    3.879822|    1.903224|    0.252595|
|         116|           0|   -1.591246|    1.059521|    1.046241|    3.871752|    1.945944|    0.261398|
|         117|           0|   -1.598187|    1.062155|    1.044991|    3.863519|    1.984697|    0.268947|
|         118|           0|   -1.604489|    1.067815|    1.045806|    3.854764|    2.019182|    0.275207|
|         119|           0|   -1.610005|    1.076042|    1.048282|    3.845826|    2.049129|    0.280154|
|         120|           0|   -1.615253|    1.085830|    1.051986|    3.836296|    2.074350|    0.283784|
+-----------------------------------------------------------------------+
|        File Writing Summary       |              Filename             |
+-----------------------------------------------------------------------+
|SU2 restart                        |solution_flow.dat                  |
|Paraview                           |flow.vtu                           |
|Paraview surface                   |surface_flow.vtu                   |
+-----------------------------------------------------------------------+

Writing the forces breakdown file (forces_breakdown.dat).
+-------------------------------------------------------------------------------------------------------+
|  Inner_Iter|   Time_Iter|    rms[Rho]|   rms[RhoU]|   rms[RhoV]|   rms[RhoE]|          CL|          CD|
+-------------------------------------------------------------------------------------------------------+
|         121|           0|   -1.619966|    1.096103|    1.056493|    3.826519|    2.094697|    0.286103|
|         122|           0|   -1.625047|    1.106080|    1.061301|    3.815795|    2.110072|    0.287130|
|         123|           0|   -1.630321|    1.115527|    1.066000|    3.804569|    2.120430|    0.286894|
|         124|           0|   -1.635741|    1.124084|    1.070158|    3.793189|    2.125792|    0.285439|
|         125|           0|   -1.641604|    1.131447|    1.073315|    3.781649|    2.126221|    0.282817|
|         126|           0|   -1.647090|    1.135879|    1.075147|    3.770576|    2.121855|    0.279097|
|         127|           0|   -1.652159|    1.138137|    1.075300|    3.760572|    2.112900|    0.274363|
|         128|           0|   -1.656571|    1.137943|    1.073367|    3.752189|    2.099598|    0.268706|
|         129|           0|   -1.659956|    1.135526|    1.069091|    3.746305|    2.082224|    0.262221|
|         130|           0|   -1.662356|    1.130582|    1.062111|    3.743074|    2.061115|    0.255012|
+-----------------------------------------------------------------------+
|        File Writing Summary       |              Filename             |
+-----------------------------------------------------------------------+
|SU2 restart                        |solution_flow.dat                  |
|Paraview                           |flow.vtu                           |
|Paraview surface                   |surface_flow.vtu                   |
+-----------------------------------------------------------------------+

Writing the forces breakdown file (forces_breakdown.dat).
+-------------------------------------------------------------------------------------------------------+
|  Inner_Iter|   Time_Iter|    rms[Rho]|   rms[RhoU]|   rms[RhoV]|   rms[RhoE]|          CL|          CD|
+-------------------------------------------------------------------------------------------------------+
|         131|           0|   -1.663448|    1.123000|    1.052344|    3.742901|    2.036641|    0.247192|
|         132|           0|   -1.663542|    1.112936|    1.039689|    3.745363|    2.009200|    0.238875|
|         133|           0|   -1.662722|    1.100492|    1.023895|    3.750181|    1.979213|    0.230178|
|         134|           0|   -1.661500|    1.085769|    1.004870|    3.756438|    1.947122|    0.221222|
|         135|           0|   -1.659753|    1.069768|    0.982855|    3.764192|    1.913384|    0.212125|
|         136|           0|   -1.658325|    1.051603|    0.957363|    3.771797|    1.878463|    0.203005|
|         137|           0|   -1.657350|    1.031530|    0.928703|    3.779045|    1.842831|    0.193978|
|         138|           0|   -1.656839|    1.010303|    0.897262|    3.785753|    1.806962|    0.185153|
|         139|           0|   -1.656686|    0.989034|    0.863700|    3.791868|    1.771317|    0.176634|
|         140|           0|   -1.657705|    0.968549|    0.829115|    3.796329|    1.736349|    0.168519|
+-----------------------------------------------------------------------+
|        File Writing Summary       |              Filename             |
+-----------------------------------------------------------------------+
|SU2 restart                        |solution_flow.dat                  |
|Paraview                           |flow.vtu                           |
|Paraview surface                   |surface_flow.vtu                   |
+-----------------------------------------------------------------------+

Writing the forces breakdown file (forces_breakdown.dat).
+-------------------------------------------------------------------------------------------------------+
|  Inner_Iter|   Time_Iter|    rms[Rho]|   rms[RhoU]|   rms[RhoV]|   rms[RhoE]|          CL|          CD|
+-------------------------------------------------------------------------------------------------------+
|         141|           0|   -1.660151|    0.949950|    0.795237|    3.798516|    1.702479|    0.160894|
|         142|           0|   -1.663835|    0.934829|    0.764513|    3.798681|    1.670103|    0.153838|
|         143|           0|   -1.668466|    0.924077|    0.739967|    3.797097|    1.639598|    0.147419|
|         144|           0|   -1.674761|    0.918326|    0.724533|    3.792964|    1.611297|    0.141696|
|         145|           0|   -1.681925|    0.917523|    0.719978|    3.787051|    1.585519|    0.136717|
|         146|           0|   -1.690091|    0.920736|    0.725983|    3.778895|    1.562530|    0.132519|
|         147|           0|   -1.698987|    0.927512|    0.740497|    3.768875|    1.542571|    0.129129|
|         148|           0|   -1.708270|    0.936924|    0.760503|    3.757259|    1.525835|    0.126560|
|         149|           0|   -1.717583|    0.947642|    0.783201|    3.744213|    1.512444|    0.124807|
|         150|           0|   -1.726650|    0.958458|    0.806378|    3.729922|    1.502472|    0.123852|
+-----------------------------------------------------------------------+
|        File Writing Summary       |              Filename             |
+-----------------------------------------------------------------------+
|SU2 restart                        |solution_flow.dat                  |
|Paraview                           |flow.vtu                           |
|Paraview surface                   |surface_flow.vtu                   |
+-----------------------------------------------------------------------+

Writing the forces breakdown file (forces_breakdown.dat).
+-------------------------------------------------------------------------------------------------------+
|  Inner_Iter|   Time_Iter|    rms[Rho]|   rms[RhoU]|   rms[RhoV]|   rms[RhoE]|          CL|          CD|
+-------------------------------------------------------------------------------------------------------+
|         151|           0|   -1.734887|    0.968993|    0.828509|    3.715075|    1.495961|    0.123671|
|         152|           0|   -1.741811|    0.978581|    0.848493|    3.700319|    1.492910|    0.124231|
|         153|           0|   -1.746715|    0.986915|    0.865867|    3.686809|    1.493252|    0.125483|
|         154|           0|   -1.749780|    0.993538|    0.880228|    3.674865|    1.496912|    0.127381|
|         155|           0|   -1.751047|    0.998003|    0.891436|    3.665050|    1.503763|    0.129867|
|         156|           0|   -1.750704|    1.000387|    0.899422|    3.657866|    1.513647|    0.132878|
|         157|           0|   -1.749029|    1.000723|    0.904228|    3.653545|    1.526363|    0.136347|
|         158|           0|   -1.746836|    0.998549|    0.905983|    3.651399|    1.541688|    0.140204|
|         159|           0|   -1.744574|    0.993886|    0.904756|    3.651163|    1.559370|    0.144374|
|         160|           0|   -1.742114|    0.986996|    0.900584|    3.653108|    1.579147|    0.148783|
+-----------------------------------------------------------------------+
|        File Writing Summary       |              Filename             |
+-----------------------------------------------------------------------+
|SU2 restart                        |solution_flow.dat                  |
|Paraview                           |flow.vtu                           |
|Paraview surface                   |surface_flow.vtu                   |
+-----------------------------------------------------------------------+

Writing the forces breakdown file (forces_breakdown.dat).
+-------------------------------------------------------------------------------------------------------+
|  Inner_Iter|   Time_Iter|    rms[Rho]|   rms[RhoU]|   rms[RhoV]|   rms[RhoE]|          CL|          CD|
+-------------------------------------------------------------------------------------------------------+
|         161|           0|   -1.740001|    0.977841|    0.893409|    3.656376|    1.600729|    0.153358|
|         162|           0|   -1.738706|    0.966620|    0.883219|    3.660141|    1.623819|    0.158026|
|         163|           0|   -1.738142|    0.953303|    0.870239|    3.664318|    1.648102|    0.162713|
|         164|           0|   -1.738484|    0.937583|    0.854910|    3.668484|    1.673265|    0.167353|
|         165|           0|   -1.740139|    0.919826|    0.837042|    3.671952|    1.698984|    0.171880|
|         166|           0|   -1.743158|    0.900120|    0.816729|    3.674431|    1.724939|    0.176235|
|         167|           0|   -1.747393|    0.878879|    0.794130|    3.675862|    1.750809|    0.180356|
|         168|           0|   -1.752694|    0.856412|    0.769515|    3.676348|    1.776291|    0.184194|
|         169|           0|   -1.758911|    0.833445|    0.743501|    3.675923|    1.801078|    0.187699|
|         170|           0|   -1.765871|    0.810601|    0.716917|    3.674561|    1.824899|    0.190834|
+-----------------------------------------------------------------------+
|        File Writing Summary       |              Filename             |
+-----------------------------------------------------------------------+
|SU2 restart                        |solution_flow.dat                  |
|Paraview                           |flow.vtu                           |
|Paraview surface                   |surface_flow.vtu                   |
+-----------------------------------------------------------------------+

Writing the forces breakdown file (forces_breakdown.dat).
+-------------------------------------------------------------------------------------------------------+
|  Inner_Iter|   Time_Iter|    rms[Rho]|   rms[RhoU]|   rms[RhoV]|   rms[RhoE]|          CL|          CD|
+-------------------------------------------------------------------------------------------------------+
|         171|           0|   -1.773388|    0.788600|    0.690834|    3.672321|    1.847493|    0.193568|
|         172|           0|   -1.781262|    0.768605|    0.666500|    3.669258|    1.868635|    0.195878|
|         173|           0|   -1.789236|    0.752152|    0.645403|    3.665445|    1.888095|    0.197740|
|         174|           0|   -1.797331|    0.740298|    0.629200|    3.660669|    1.905673|    0.199140|
|         175|           0|   -1.805644|    0.733853|    0.619248|    3.654678|    1.921198|    0.200069|
|         176|           0|   -1.814143|    0.732913|    0.616168|    3.647316|    1.934517|    0.200522|
|         177|           0|   -1.822410|    0.737049|    0.619852|    3.638971|    1.945509|    0.200503|
|         178|           0|   -1.830132|    0.745499|    0.629209|    3.629942|    1.954098|    0.200024|
|         179|           0|   -1.837473|    0.756913|    0.642659|    3.619990|    1.960239|    0.199105|
|         180|           0|   -1.843934|    0.770340|    0.658593|    3.609720|    1.963913|    0.197767|
+-----------------------------------------------------------------------+
|        File Writing Summary       |              Filename             |
+-----------------------------------------------------------------------+
|SU2 restart                        |solution_flow.dat                  |
|Paraview                           |flow.vtu                           |
|Paraview surface                   |surface_flow.vtu                   |
+-----------------------------------------------------------------------+

Writing the forces breakdown file (forces_breakdown.dat).
+-------------------------------------------------------------------------------------------------------+
|  Inner_Iter|   Time_Iter|    rms[Rho]|   rms[RhoU]|   rms[RhoV]|   rms[RhoE]|          CL|          CD|
+-------------------------------------------------------------------------------------------------------+
|         181|           0|   -1.849846|    0.784096|    0.675567|    3.598842|    1.965146|    0.196042|
|         182|           0|   -1.855177|    0.797698|    0.692362|    3.587617|    1.963978|    0.193961|
|         183|           0|   -1.859992|    0.810244|    0.708174|    3.576091|    1.960495|    0.191565|
|         184|           0|   -1.864949|    0.821044|    0.722408|    3.563752|    1.954789|    0.188891|
|         185|           0|   -1.869456|    0.830186|    0.734426|    3.551682|    1.946987|    0.185983|
|         186|           0|   -1.873082|    0.837072|    0.744039|    3.540657|    1.937245|    0.182888|
|         187|           0|   -1.875872|    0.841650|    0.751013|    3.531201|    1.925745|    0.179655|
|         188|           0|   -1.877994|    0.843779|    0.755303|    3.523515|    1.912667|    0.176331|
|         189|           0|   -1.879628|    0.843156|    0.756695|    3.517671|    1.898216|    0.172961|
|         190|           0|   -1.880678|    0.839790|    0.755246|    3.514038|    1.882613|    0.169596|
+-----------------------------------------------------------------------+
|        File Writing Summary       |              Filename             |
+-----------------------------------------------------------------------+
|SU2 restart                        |solution_flow.dat                  |
|Paraview                           |flow.vtu                           |
|Paraview surface                   |surface_flow.vtu                   |
+-----------------------------------------------------------------------+

Writing the forces breakdown file (forces_breakdown.dat).
+-------------------------------------------------------------------------------------------------------+
|  Inner_Iter|   Time_Iter|    rms[Rho]|   rms[RhoU]|   rms[RhoV]|   rms[RhoE]|          CL|          CD|
+-------------------------------------------------------------------------------------------------------+
|         191|           0|   -1.881474|    0.833530|    0.750849|    3.512319|    1.866086|    0.166282|
|         192|           0|   -1.882324|    0.824675|    0.743575|    3.512219|    1.848860|    0.163063|
|         193|           0|   -1.883308|    0.813089|    0.733111|    3.513455|    1.831180|    0.159983|
|         194|           0|   -1.884624|    0.798674|    0.719676|    3.515613|    1.813276|    0.157083|
|         195|           0|   -1.886473|    0.781354|    0.703260|    3.518213|    1.795381|    0.154400|
|         196|           0|   -1.889122|    0.761157|    0.683952|    3.520734|    1.777722|    0.151967|
|         197|           0|   -1.892033|    0.738276|    0.661863|    3.523669|    1.760507|    0.149807|
|         198|           0|   -1.895510|    0.713043|    0.637173|    3.526376|    1.743935|    0.147943|
|         199|           0|   -1.899631|    0.685766|    0.610337|    3.528557|    1.728188|    0.146390|
|         200|           0|   -1.904557|    0.656894|    0.581982|    3.529739|    1.713440|    0.145162|
+-----------------------------------------------------------------------+
|        File Writing Summary       |              Filename             |
+-----------------------------------------------------------------------+
|SU2 restart                        |solution_flow.dat                  |
|Paraview                           |flow.vtu                           |
|Paraview surface                   |surface_flow.vtu                   |
+-----------------------------------------------------------------------+

Writing the forces breakdown file (forces_breakdown.dat).
+-------------------------------------------------------------------------------------------------------+
|  Inner_Iter|   Time_Iter|    rms[Rho]|   rms[RhoU]|   rms[RhoV]|   rms[RhoE]|          CL|          CD|
+-------------------------------------------------------------------------------------------------------+
|         201|           0|   -1.910179|    0.627172|    0.553154|    3.529894|    1.699838|    0.144266|
|         202|           0|   -1.916421|    0.597539|    0.525320|    3.528911|    1.687525|    0.143707|
|         203|           0|   -1.923193|    0.570126|    0.500155|    3.526808|    1.676632|    0.143485|
|         204|           0|   -1.930822|    0.546817|    0.479745|    3.523071|    1.667268|    0.143596|
|         205|           0|   -1.939023|    0.529541|    0.466067|    3.517900|    1.659517|    0.144033|
|         206|           0|   -1.947704|    0.519682|    0.460511|    3.511303|    1.653458|    0.144784|
|         207|           0|   -1.956363|    0.517632|    0.463224|    3.503662|    1.649131|    0.145833|
|         208|           0|   -1.964908|    0.522944|    0.472985|    3.494945|    1.646568|    0.147163|
|         209|           0|   -1.973515|    0.533991|    0.487904|    3.484857|    1.645767|    0.148751|
|         210|           0|   -1.981865|    0.549087|    0.505928|    3.473731|    1.646720|    0.150571|
+-----------------------------------------------------------------------+
|        File Writing Summary       |              Filename             |
+-----------------------------------------------------------------------+
|SU2 restart                        |solution_flow.dat                  |
|Paraview                           |flow.vtu                           |
|Paraview surface                   |surface_flow.vtu                   |
+-----------------------------------------------------------------------+

Writing the forces breakdown file (forces_breakdown.dat).
+-------------------------------------------------------------------------------------------------------+
|  Inner_Iter|   Time_Iter|    rms[Rho]|   rms[RhoU]|   rms[RhoV]|   rms[RhoE]|          CL|          CD|
+-------------------------------------------------------------------------------------------------------+
|         211|           0|   -1.989777|    0.566171|    0.525100|    3.461829|    1.649394|    0.152596|
|         212|           0|   -1.997671|    0.582566|    0.543820|    3.448688|    1.653737|    0.154797|
|         213|           0|   -2.004331|    0.598389|    0.561183|    3.435789|    1.659681|    0.157142|
|         214|           0|   -2.009603|    0.612868|    0.576550|    3.423595|    1.667138|    0.159599|
|         215|           0|   -2.013518|    0.625391|    0.589510|    3.412499|    1.676002|    0.162131|
|         216|           0|   -2.016240|    0.635689|    0.599817|    3.402696|    1.686154|    0.164706|
|         217|           0|   -2.018038|    0.643599|    0.607364|    3.394311|    1.697466|    0.167288|
|         218|           0|   -2.019258|    0.649163|    0.612108|    3.387410|    1.709794|    0.169843|
|         219|           0|   -2.019967|    0.652205|    0.613979|    3.382234|    1.722982|    0.172338|
|         220|           0|   -2.020479|    0.652509|    0.613133|    3.378653|    1.736866|    0.174739|
+-----------------------------------------------------------------------+
|        File Writing Summary       |              Filename             |
+-----------------------------------------------------------------------+
|SU2 restart                        |solution_flow.dat                  |
|Paraview                           |flow.vtu                           |
|Paraview surface                   |surface_flow.vtu                   |
+-----------------------------------------------------------------------+

Writing the forces breakdown file (forces_breakdown.dat).
+-------------------------------------------------------------------------------------------------------+
|  Inner_Iter|   Time_Iter|    rms[Rho]|   rms[RhoU]|   rms[RhoV]|   rms[RhoE]|          CL|          CD|
+-------------------------------------------------------------------------------------------------------+
|         221|           0|   -2.021129|    0.650157|    0.609540|    3.376352|    1.751281|    0.177015|
|         222|           0|   -2.021875|    0.645016|    0.603184|    3.375393|    1.766054|    0.179137|
|         223|           0|   -2.022652|    0.637091|    0.594024|    3.375889|    1.781011|    0.181079|
|         224|           0|   -2.023673|    0.626370|    0.581892|    3.377503|    1.795976|    0.182815|
|         225|           0|   -2.025300|    0.613115|    0.567027|    3.379564|    1.810777|    0.184324|
|         226|           0|   -2.027731|    0.597553|    0.549546|    3.381619|    1.825245|    0.185589|
|         227|           0|   -2.031102|    0.579819|    0.529563|    3.383301|    1.839217|    0.186593|
|         228|           0|   -2.035384|    0.560105|    0.507278|    3.384409|    1.852541|    0.187325|
|         229|           0|   -2.040646|    0.538865|    0.483062|    3.384716|    1.865071|    0.187776|
|         230|           0|   -2.046868|    0.516702|    0.457258|    3.384095|    1.876673|    0.187944|
+-----------------------------------------------------------------------+
|        File Writing Summary       |              Filename             |
+-----------------------------------------------------------------------+
|SU2 restart                        |solution_flow.dat                  |
|Paraview                           |flow.vtu                           |
|Paraview surface                   |surface_flow.vtu                   |
+-----------------------------------------------------------------------+

Writing the forces breakdown file (forces_breakdown.dat).
+-------------------------------------------------------------------------------------------------------+
|  Inner_Iter|   Time_Iter|    rms[Rho]|   rms[RhoU]|   rms[RhoV]|   rms[RhoE]|          CL|          CD|
+-------------------------------------------------------------------------------------------------------+
|         231|           0|   -2.054056|    0.494451|    0.430582|    3.382357|    1.887224|    0.187825|
|         232|           0|   -2.062207|    0.473216|    0.404058|    3.379376|    1.896620|    0.187424|
|         233|           0|   -2.071098|    0.453890|    0.379099|    3.375243|    1.904764|    0.186744|
|         234|           0|   -2.080816|    0.437679|    0.357229|    3.369673|    1.911582|    0.185796|
|         235|           0|   -2.091238|    0.425706|    0.340028|    3.362735|    1.917015|    0.184593|
|         236|           0|   -2.101855|    0.418791|    0.328707|    3.354798|    1.921024|    0.183150|
|         237|           0|   -2.112659|    0.417284|    0.323971|    3.345734|    1.923590|    0.181488|
|         238|           0|   -2.123331|    0.420905|    0.325703|    3.335708|    1.924712|    0.179628|
|         239|           0|   -2.133515|    0.428957|    0.333060|    3.325039|    1.924403|    0.177595|
|         240|           0|   -2.143533|    0.440324|    0.344618|    3.313330|    1.922696|    0.175414|
+-----------------------------------------------------------------------+
|        File Writing Summary       |              Filename             |
+-----------------------------------------------------------------------+
|SU2 restart                        |solution_flow.dat                  |
|Paraview                           |flow.vtu                           |
|Paraview surface                   |surface_flow.vtu                   |
+-----------------------------------------------------------------------+

Writing the forces breakdown file (forces_breakdown.dat).
+-------------------------------------------------------------------------------------------------------+
|  Inner_Iter|   Time_Iter|    rms[Rho]|   rms[RhoU]|   rms[RhoV]|   rms[RhoE]|          CL|          CD|
+-------------------------------------------------------------------------------------------------------+
|         241|           0|   -2.153072|    0.453523|    0.358767|    3.300830|    1.919643|    0.173113|
|         242|           0|   -2.161972|    0.467261|    0.374093|    3.287747|    1.915306|    0.170722|
|         243|           0|   -2.169954|    0.480661|    0.389405|    3.274464|    1.909766|    0.168269|
|         244|           0|   -2.177354|    0.492912|    0.403836|    3.260719|    1.903112|    0.165785|
|         245|           0|   -2.183401|    0.503822|    0.416780|    3.247638|    1.895451|    0.163299|
|         246|           0|   -2.188096|    0.512923|    0.427789|    3.235550|    1.886894|    0.160842|
|         247|           0|   -2.191543|    0.519916|    0.436579|    3.224769|    1.877567|    0.158442|
|         248|           0|   -2.194072|    0.524579|    0.442950|    3.215358|    1.867601|    0.156128|
|         249|           0|   -2.195730|    0.526880|    0.446707|    3.207714|    1.857131|    0.153928|
|         250|           0|   -2.196900|    0.526899|    0.447808|    3.201764|    1.846299|    0.151867|
+-----------------------------------------------------------------------+
|        File Writing Summary       |              Filename             |
+-----------------------------------------------------------------------+
|SU2 restart                        |solution_flow.dat                  |
|Paraview                           |flow.vtu                           |
|Paraview surface                   |surface_flow.vtu                   |
+-----------------------------------------------------------------------+

Writing the forces breakdown file (forces_breakdown.dat).
+-------------------------------------------------------------------------------------------------------+
|  Inner_Iter|   Time_Iter|    rms[Rho]|   rms[RhoU]|   rms[RhoV]|   rms[RhoE]|          CL|          CD|
+-------------------------------------------------------------------------------------------------------+
|         251|           0|   -2.198258|    0.524539|    0.446186|    3.197036|    1.835245|    0.149968|
|         252|           0|   -2.199580|    0.519678|    0.441898|    3.193901|    1.824111|    0.148253|
|         253|           0|   -2.200558|    0.512277|    0.434902|    3.192668|    1.813033|    0.146738|
|         254|           0|   -2.201585|    0.502330|    0.425196|    3.192817|    1.802151|    0.145442|
|         255|           0|   -2.203009|    0.489827|    0.412788|    3.193782|    1.791593|    0.144376|
|         256|           0|   -2.204920|    0.474874|    0.397716|    3.195345|    1.781490|    0.143552|
|         257|           0|   -2.207421|    0.457481|    0.380030|    3.197204|    1.771956|    0.142978|
|         258|           0|   -2.210504|    0.437763|    0.359904|    3.199153|    1.763104|    0.142657|
|         259|           0|   -2.214390|    0.415942|    0.337377|    3.200732|    1.755034|    0.142591|
|         260|           0|   -2.219193|    0.392254|    0.312730|    3.201603|    1.747834|    0.142779|
+-----------------------------------------------------------------------+
|        File Writing Summary       |              Filename             |
+-----------------------------------------------------------------------+
|SU2 restart                        |solution_flow.dat                  |
|Paraview                           |flow.vtu                           |
|Paraview surface                   |surface_flow.vtu                   |
+-----------------------------------------------------------------------+

Writing the forces breakdown file (forces_breakdown.dat).
+-------------------------------------------------------------------------------------------------------+
|  Inner_Iter|   Time_Iter|    rms[Rho]|   rms[RhoU]|   rms[RhoV]|   rms[RhoE]|          CL|          CD|
+-------------------------------------------------------------------------------------------------------+
|         261|           0|   -2.224911|    0.367101|    0.286444|    3.201623|    1.741579|    0.143216|
|         262|           0|   -2.231541|    0.341006|    0.259083|    3.200646|    1.736339|    0.143895|
|         263|           0|   -2.238943|    0.314647|    0.231614|    3.198660|    1.732164|    0.144808|
|         264|           0|   -2.247111|    0.289084|    0.205259|    3.195530|    1.729093|    0.145940|
|         265|           0|   -2.255908|    0.265520|    0.181644|    3.191256|    1.727149|    0.147278|
|         266|           0|   -2.265314|    0.245300|    0.162416|    3.185725|    1.726345|    0.148805|
|         267|           0|   -2.275117|    0.229603|    0.149035|    3.179022|    1.726678|    0.150500|
|         268|           0|   -2.285654|    0.218654|    0.142431|    3.170610|    1.728134|    0.152344|
|         269|           0|   -2.296012|    0.213203|    0.142654|    3.161313|    1.730688|    0.154314|
|         270|           0|   -2.305848|    0.213334|    0.148886|    3.151401|    1.734300|    0.156387|
+-----------------------------------------------------------------------+
|        File Writing Summary       |              Filename             |
+-----------------------------------------------------------------------+
|SU2 restart                        |solution_flow.dat                  |
|Paraview                           |flow.vtu                           |
|Paraview surface                   |surface_flow.vtu                   |
+-----------------------------------------------------------------------+

Writing the forces breakdown file (forces_breakdown.dat).
+-------------------------------------------------------------------------------------------------------+
|  Inner_Iter|   Time_Iter|    rms[Rho]|   rms[RhoU]|   rms[RhoV]|   rms[RhoE]|          CL|          CD|
+-------------------------------------------------------------------------------------------------------+
|         271|           0|   -2.315225|    0.217987|    0.159628|    3.140730|    1.738921|    0.158542|
|         272|           0|   -2.323704|    0.226486|    0.173460|    3.129792|    1.744485|    0.160751|
|         273|           0|   -2.331148|    0.237433|    0.188852|    3.118727|    1.750925|    0.162990|
|         274|           0|   -2.337448|    0.249739|    0.204550|    3.107815|    1.758160|    0.165234|
|         275|           0|   -2.342496|    0.262284|    0.219562|    3.097427|    1.766097|    0.167456|
|         276|           0|   -2.346469|    0.274082|    0.233282|    3.087561|    1.774642|    0.169633|
|         277|           0|   -2.349546|    0.284276|    0.245108|    3.078316|    1.783694|    0.171740|
|         278|           0|   -2.351820|    0.292714|    0.254750|    3.069968|    1.793145|    0.173755|
|         279|           0|   -2.353291|    0.299262|    0.262138|    3.062840|    1.802885|    0.175654|
|         280|           0|   -2.354151|    0.303751|    0.267096|    3.057057|    1.812803|    0.177417|
+-----------------------------------------------------------------------+
|        File Writing Summary       |              Filename             |
+-----------------------------------------------------------------------+
|SU2 restart                        |solution_flow.dat                  |
|Paraview                           |flow.vtu                           |
|Paraview surface                   |surface_flow.vtu                   |
+-----------------------------------------------------------------------+

Writing the forces breakdown file (forces_breakdown.dat).
+-------------------------------------------------------------------------------------------------------+
|  Inner_Iter|   Time_Iter|    rms[Rho]|   rms[RhoU]|   rms[RhoV]|   rms[RhoE]|          CL|          CD|
+-------------------------------------------------------------------------------------------------------+
|         281|           0|   -2.354700|    0.306090|    0.269639|    3.052528|    1.822790|    0.179027|
|         282|           0|   -2.355172|    0.306109|    0.269753|    3.049140|    1.832733|    0.180465|
|         283|           0|   -2.355699|    0.303887|    0.267445|    3.046870|    1.842528|    0.181718|
|         284|           0|   -2.356539|    0.299472|    0.262736|    3.045446|    1.852067|    0.182772|
|         285|           0|   -2.357810|    0.292775|    0.255717|    3.044691|    1.861248|    0.183618|
|         286|           0|   -2.359758|    0.283937|    0.246457|    3.044222|    1.869980|    0.184247|
|         287|           0|   -2.362459|    0.273022|    0.234992|    3.043864|    1.878173|    0.184654|
|         288|           0|   -2.366064|    0.260177|    0.221502|    3.043379|    1.885746|    0.184837|
|         289|           0|   -2.370558|    0.245639|    0.206110|    3.042676|    1.892627|    0.184795|
|         290|           0|   -2.376024|    0.229765|    0.189141|    3.041462|    1.898750|    0.184529|
+-----------------------------------------------------------------------+
|        File Writing Summary       |              Filename             |
+-----------------------------------------------------------------------+
|SU2 restart                        |solution_flow.dat                  |
|Paraview                           |flow.vtu                           |
|Paraview surface                   |surface_flow.vtu                   |
+-----------------------------------------------------------------------+

Writing the forces breakdown file (forces_breakdown.dat).
+-------------------------------------------------------------------------------------------------------+
|  Inner_Iter|   Time_Iter|    rms[Rho]|   rms[RhoU]|   rms[RhoV]|   rms[RhoE]|          CL|          CD|
+-------------------------------------------------------------------------------------------------------+
|         291|           0|   -2.382429|    0.212945|    0.170953|    3.039637|    1.904062|    0.184046|
|         292|           0|   -2.389814|    0.195591|    0.151917|    3.037015|    1.908520|    0.183352|
|         293|           0|   -2.398118|    0.178274|    0.132620|    3.033526|    1.912094|    0.182457|
|         294|           0|   -2.407241|    0.161659|    0.113775|    3.029142|    1.914761|    0.181373|
|         295|           0|   -2.417229|    0.146579|    0.096200|    3.023676|    1.916515|    0.180114|
|         296|           0|   -2.427980|    0.133670|    0.080718|    3.017113|    1.917353|    0.178696|
|         297|           0|   -2.439214|    0.123622|    0.068085|    3.009596|    1.917291|    0.177138|
|         298|           0|   -2.450712|    0.116808|    0.058926|    3.001208|    1.916345|    0.175456|
|         299|           0|   -2.462396|    0.113407|    0.053543|    2.991869|    1.914550|    0.173672|
|         300|           0|   -2.474292|    0.113121|    0.051974|    2.981312|    1.911946|    0.171806|
+-----------------------------------------------------------------------+
|        File Writing Summary       |              Filename             |
+-----------------------------------------------------------------------+
|SU2 restart                        |solution_flow.dat                  |
|Paraview                           |flow.vtu                           |
|Paraview surface                   |surface_flow.vtu                   |
+-----------------------------------------------------------------------+

Writing the forces breakdown file (forces_breakdown.dat).
+-------------------------------------------------------------------------------------------------------+
|  Inner_Iter|   Time_Iter|    rms[Rho]|   rms[RhoU]|   rms[RhoV]|   rms[RhoE]|          CL|          CD|
+-------------------------------------------------------------------------------------------------------+
|         301|           0|   -2.485952|    0.115875|    0.053825|    2.970036|    1.908583|    0.169880|
|         302|           0|   -2.497161|    0.121107|    0.058470|    2.958138|    1.904519|    0.167917|
|         303|           0|   -2.507707|    0.128108|    0.065140|    2.945786|    1.899823|    0.165939|
|         304|           0|   -2.517487|    0.136221|    0.073074|    2.933090|    1.894564|    0.163968|
|         305|           0|   -2.526142|    0.144786|    0.081516|    2.920497|    1.888820|    0.162028|
|         306|           0|   -2.533667|    0.153180|    0.089818|    2.908090|    1.882672|    0.160139|
|         307|           0|   -2.540220|    0.160910|    0.097431|    2.895895|    1.876207|    0.158323|
|         308|           0|   -2.545766|    0.167538|    0.103971|    2.884162|    1.869509|    0.156598|
|         309|           0|   -2.550259|    0.172854|    0.109179|    2.873319|    1.862669|    0.154985|
|         310|           0|   -2.553797|    0.176627|    0.112788|    2.863597|    1.855774|    0.153498|
+-----------------------------------------------------------------------+
|        File Writing Summary       |              Filename             |
+-----------------------------------------------------------------------+
|SU2 restart                        |solution_flow.dat                  |
|Paraview                           |flow.vtu                           |
|Paraview surface                   |surface_flow.vtu                   |
+-----------------------------------------------------------------------+

Writing the forces breakdown file (forces_breakdown.dat).
+-------------------------------------------------------------------------------------------------------+
|  Inner_Iter|   Time_Iter|    rms[Rho]|   rms[RhoU]|   rms[RhoV]|   rms[RhoE]|          CL|          CD|
+-------------------------------------------------------------------------------------------------------+
|         311|           0|   -2.556561|    0.178641|    0.114628|    2.855107|    1.848913|    0.152155|
|         312|           0|   -2.558776|    0.178821|    0.114487|    2.847912|    1.842167|    0.150967|
|         313|           0|   -2.560678|    0.177060|    0.112313|    2.841969|    1.835622|    0.149948|
|         314|           0|   -2.562504|    0.173374|    0.108077|    2.837189|    1.829352|    0.149105|
|         315|           0|   -2.564449|    0.167684|    0.101780|    2.833462|    1.823434|    0.148447|
|         316|           0|   -2.566678|    0.159953|    0.093403|    2.830638|    1.817934|    0.147980|
|         317|           0|   -2.569331|    0.150220|    0.082932|    2.828549|    1.812914|    0.147705|
|         318|           0|   -2.572513|    0.138477|    0.070432|    2.827007|    1.808427|    0.147623|
|         319|           0|   -2.576287|    0.124750|    0.055972|    2.825813|    1.804521|    0.147733|
|         320|           0|   -2.580688|    0.109147|    0.039657|    2.824799|    1.801234|    0.148031|
+-----------------------------------------------------------------------+
|        File Writing Summary       |              Filename             |
+-----------------------------------------------------------------------+
|SU2 restart                        |solution_flow.dat                  |
|Paraview                           |flow.vtu                           |
|Paraview surface                   |surface_flow.vtu                   |
+-----------------------------------------------------------------------+

Writing the forces breakdown file (forces_breakdown.dat).
+-------------------------------------------------------------------------------------------------------+
|  Inner_Iter|   Time_Iter|    rms[Rho]|   rms[RhoU]|   rms[RhoV]|   rms[RhoE]|          CL|          CD|
+-------------------------------------------------------------------------------------------------------+
|         321|           0|   -2.585762|    0.091732|    0.021591|    2.823763|    1.798599|    0.148511|
|         322|           0|   -2.591557|    0.072743|    0.002002|    2.822493|    1.796639|    0.149165|
|         323|           0|   -2.598043|    0.052398|   -0.018725|    2.820876|    1.795368|    0.149984|
|         324|           0|   -2.605228|    0.030952|   -0.040146|    2.818707|    1.794791|    0.150956|
|         325|           0|   -2.613175|    0.008837|   -0.061675|    2.815779|    1.794910|    0.152070|
|         326|           0|   -2.621871|   -0.013475|   -0.082618|    2.811962|    1.795714|    0.153310|
|         327|           0|   -2.631203|   -0.035409|   -0.102171|    2.807239|    1.797186|    0.154662|
|         328|           0|   -2.641000|   -0.056333|   -0.119459|    2.801648|    1.799301|    0.156110|
|         329|           0|   -2.651109|   -0.075530|   -0.133651|    2.795182|    1.802030|    0.157636|
|         330|           0|   -2.661304|   -0.092266|   -0.144067|    2.787940|    1.805331|    0.159223|
+-----------------------------------------------------------------------+
|        File Writing Summary       |              Filename             |
+-----------------------------------------------------------------------+
|SU2 restart                        |solution_flow.dat                  |
|Paraview                           |flow.vtu                           |
|Paraview surface                   |surface_flow.vtu                   |
+-----------------------------------------------------------------------+

Writing the forces breakdown file (forces_breakdown.dat).
+-------------------------------------------------------------------------------------------------------+
|  Inner_Iter|   Time_Iter|    rms[Rho]|   rms[RhoU]|   rms[RhoV]|   rms[RhoE]|          CL|          CD|
+-------------------------------------------------------------------------------------------------------+
|         331|           0|   -2.671417|   -0.105919|   -0.150321|    2.779981|    1.809165|    0.160854|
|         332|           0|   -2.681235|   -0.116096|   -0.152415|    2.771443|    1.813481|    0.162509|
|         333|           0|   -2.690528|   -0.122666|   -0.150671|    2.762448|    1.818227|    0.164171|
|         334|           0|   -2.699088|   -0.125798|   -0.145762|    2.753186|    1.823346|    0.165822|
|         335|           0|   -2.706877|   -0.125671|   -0.138488|    2.743726|    1.828779|    0.167443|
|         336|           0|   -2.713859|   -0.122875|   -0.129718|    2.734145|    1.834463|    0.169019|
|         337|           0|   -2.719813|   -0.118113|   -0.120234|    2.724777|    1.840336|    0.170532|
|         338|           0|   -2.724799|   -0.112215|   -0.110766|    2.715722|    1.846332|    0.171969|
|         339|           0|   -2.729075|   -0.105963|   -0.101861|    2.706870|    1.852389|    0.173314|
|         340|           0|   -2.732603|   -0.099933|   -0.093897|    2.698490|    1.858441|    0.174555|
+-----------------------------------------------------------------------+
|        File Writing Summary       |              Filename             |
+-----------------------------------------------------------------------+
|SU2 restart                        |solution_flow.dat                  |
|Paraview                           |flow.vtu                           |
|Paraview surface                   |surface_flow.vtu                   |
+-----------------------------------------------------------------------+

Writing the forces breakdown file (forces_breakdown.dat).
+-------------------------------------------------------------------------------------------------------+
|  Inner_Iter|   Time_Iter|    rms[Rho]|   rms[RhoU]|   rms[RhoV]|   rms[RhoE]|          CL|          CD|
+-------------------------------------------------------------------------------------------------------+
|         341|           0|   -2.735502|   -0.094534|   -0.087149|    2.690698|    1.864426|    0.175680|
|         342|           0|   -2.737942|   -0.090088|   -0.081817|    2.683558|    1.870282|    0.176679|
|         343|           0|   -2.740111|   -0.086824|   -0.078014|    2.677094|    1.875954|    0.177544|
|         344|           0|   -2.742110|   -0.084935|   -0.075794|    2.671415|    1.881386|    0.178267|
|         345|           0|   -2.744133|   -0.084535|   -0.075198|    2.666444|    1.886528|    0.178843|
|         346|           0|   -2.746503|   -0.085561|   -0.076167|    2.661922|    1.891330|    0.179267|
|         347|           0|   -2.749364|   -0.088061|   -0.078697|    2.657749|    1.895756|    0.179540|
|         348|           0|   -2.752806|   -0.092041|   -0.082701|    2.653851|    1.899765|    0.179660|
|         349|           0|   -2.756886|   -0.097453|   -0.088068|    2.650156|    1.903328|    0.179628|
|         350|           0|   -2.761730|   -0.104211|   -0.094664|    2.646481|    1.906416|    0.179447|
+-----------------------------------------------------------------------+
[...]
|         905|           0|   -4.438352|   -1.306834|   -1.702326|    1.109912|    1.941991|    0.168806|
|         906|           0|   -4.456981|   -1.394253|   -1.744177|    1.024586|    1.942001|    0.168808|
|         907|           0|   -4.431680|   -1.521870|   -1.783614|    0.995621|    1.942012|    0.168810|
|         908|           0|   -4.377526|   -1.698009|   -1.803322|    1.051311|    1.942023|    0.168813|
|         909|           0|   -4.312627|   -1.821518|   -1.795042|    1.148938|    1.942034|    0.168816|
|         910|           0|   -4.242564|   -1.626227|   -1.761605|    1.255395|    1.942047|    0.168819|
+-----------------------------------------------------------------------+
|        File Writing Summary       |              Filename             |
+-----------------------------------------------------------------------+
|SU2 restart                        |solution_flow.dat                  |
|Paraview                           |flow.vtu                           |
|Paraview surface                   |surface_flow.vtu                   |
+-----------------------------------------------------------------------+

Writing the forces breakdown file (forces_breakdown.dat).
+-------------------------------------------------------------------------------------------------------+
|  Inner_Iter|   Time_Iter|    rms[Rho]|   rms[RhoU]|   rms[RhoV]|   rms[RhoE]|          CL|          CD|
+-------------------------------------------------------------------------------------------------------+
|         911|           0|   -4.165216|   -1.373723|   -1.706399|    1.364755|    1.942060|    0.168822|
|         912|           0|   -4.080021|   -1.166637|   -1.631464|    1.475752|    1.942074|    0.168826|
|         913|           0|   -4.186900|   -1.187519|   -1.642647|    1.385581|    1.942088|    0.168829|
|         914|           0|   -4.360147|   -1.293630|   -1.693167|    1.210613|    1.942104|    0.168832|
|         915|           0|   -4.453451|   -1.396985|   -1.736767|    1.071464|    1.942120|    0.168836|
|         916|           0|   -4.467701|   -1.495077|   -1.770296|    0.998181|    1.942137|    0.168840|
|         917|           0|   -4.461898|   -1.585857|   -1.795038|    0.972586|    1.942154|    0.168843|
|         918|           0|   -4.468625|   -1.666251|   -1.812734|    0.955655|    1.942171|    0.168846|
|         919|           0|   -4.492274|   -1.731954|   -1.824849|    0.930712|    1.942189|    0.168850|
|         920|           0|   -4.530819|   -1.780279|   -1.833155|    0.894581|    1.942207|    0.168853|
+-----------------------------------------------------------------------+
|        File Writing Summary       |              Filename             |
+-----------------------------------------------------------------------+
|SU2 restart                        |solution_flow.dat                  |
|Paraview                           |flow.vtu                           |
|Paraview surface                   |surface_flow.vtu                   |
+-----------------------------------------------------------------------+

Writing the forces breakdown file (forces_breakdown.dat).
+-------------------------------------------------------------------------------------------------------+
|  Inner_Iter|   Time_Iter|    rms[Rho]|   rms[RhoU]|   rms[RhoV]|   rms[RhoE]|          CL|          CD|
+-------------------------------------------------------------------------------------------------------+
|         921|           0|   -4.581162|   -1.812630|   -1.839461|    0.848772|    1.942224|    0.168856|
|         922|           0|   -4.547472|   -1.950082|   -1.845927|    0.906489|    1.942242|    0.168859|
|         923|           0|   -4.437242|   -1.778349|   -1.836427|    1.064143|    1.942260|    0.168862|
|         924|           0|   -4.349842|   -1.512009|   -1.801250|    1.187419|    1.942277|    0.168864|
|         925|           0|   -4.300829|   -1.352238|   -1.753849|    1.261177|    1.942295|    0.168866|
|         926|           0|   -4.293972|   -1.267871|   -1.714861|    1.285626|    1.942313|    0.168869|
|         927|           0|   -4.324747|   -1.238495|   -1.696922|    1.265323|    1.942330|    0.168871|
|         928|           0|   -4.379562|   -1.251866|   -1.704008|    1.207563|    1.942346|    0.168872|
|         929|           0|   -4.434657|   -1.301152|   -1.734760|    1.122842|    1.942363|    0.168873|
|         930|           0|   -4.460167|   -1.385146|   -1.782331|    1.034181|    1.942379|    0.168874|
+-----------------------------------------------------------------------+
|        File Writing Summary       |              Filename             |
+-----------------------------------------------------------------------+
|SU2 restart                        |solution_flow.dat                  |
|Paraview                           |flow.vtu                           |
|Paraview surface                   |surface_flow.vtu                   |
+-----------------------------------------------------------------------+

Writing the forces breakdown file (forces_breakdown.dat).
+-------------------------------------------------------------------------------------------------------+
|  Inner_Iter|   Time_Iter|    rms[Rho]|   rms[RhoU]|   rms[RhoV]|   rms[RhoE]|          CL|          CD|
+-------------------------------------------------------------------------------------------------------+
|         931|           0|   -4.440871|   -1.510153|   -1.831256|    0.993178|    1.942394|    0.168875|
|         932|           0|   -4.389331|   -1.690130|   -1.858987|    1.038160|    1.942409|    0.168876|
|         933|           0|   -4.324758|   -1.859685|   -1.851466|    1.132980|    1.942422|    0.168875|
|         934|           0|   -4.254940|   -1.679576|   -1.812406|    1.239191|    1.942436|    0.168876|
|         935|           0|   -4.178107|   -1.410595|   -1.749376|    1.348567|    1.942449|    0.168875|
|         936|           0|   -4.093061|   -1.194272|   -1.666718|    1.460092|    1.942461|    0.168875|
|         937|           0|   -4.158910|   -1.172217|   -1.657871|    1.412388|    1.942472|    0.168874|
|         938|           0|   -4.340247|   -1.279264|   -1.714356|    1.234734|    1.942482|    0.168873|
|         939|           0|   -4.448500|   -1.384447|   -1.766132|    1.087121|    1.942492|    0.168872|
|         940|           0|   -4.469886|   -1.485227|   -1.807566|    1.004025|    1.942501|    0.168871|
+-----------------------------------------------------------------------+
|        File Writing Summary       |              Filename             |
+-----------------------------------------------------------------------+
|SU2 restart                        |solution_flow.dat                  |
|Paraview                           |flow.vtu                           |
|Paraview surface                   |surface_flow.vtu                   |
+-----------------------------------------------------------------------+

Writing the forces breakdown file (forces_breakdown.dat).
+-------------------------------------------------------------------------------------------------------+
|  Inner_Iter|   Time_Iter|    rms[Rho]|   rms[RhoU]|   rms[RhoV]|   rms[RhoE]|          CL|          CD|
+-------------------------------------------------------------------------------------------------------+
|         941|           0|   -4.463206|   -1.579609|   -1.838935|    0.974445|    1.942509|    0.168869|
|         942|           0|   -4.466723|   -1.664692|   -1.861653|    0.958329|    1.942517|    0.168868|
|         943|           0|   -4.487629|   -1.735838|   -1.877034|    0.935125|    1.942524|    0.168866|
|         944|           0|   -4.524244|   -1.789290|   -1.887009|    0.900293|    1.942530|    0.168864|
|         945|           0|   -4.573102|   -1.825372|   -1.893859|    0.855436|    1.942536|    0.168862|
|         946|           0|   -4.563875|   -1.953972|   -1.900677|    0.882826|    1.942542|    0.168860|
|         947|           0|   -4.452871|   -1.843732|   -1.890809|    1.041714|    1.942547|    0.168858|
|         948|           0|   -4.360431|   -1.548952|   -1.849208|    1.172200|    1.942551|    0.168856|
|         949|           0|   -4.305317|   -1.372566|   -1.791921|    1.253514|    1.942555|    0.168854|
|         950|           0|   -4.292373|   -1.277670|   -1.743705|    1.285104|    1.942559|    0.168852|
+-----------------------------------------------------------------------+
|        File Writing Summary       |              Filename             |
+-----------------------------------------------------------------------+
|SU2 restart                        |solution_flow.dat                  |
|Paraview                           |flow.vtu                           |
|Paraview surface                   |surface_flow.vtu                   |
+-----------------------------------------------------------------------+

Writing the forces breakdown file (forces_breakdown.dat).
+-------------------------------------------------------------------------------------------------------+
|  Inner_Iter|   Time_Iter|    rms[Rho]|   rms[RhoU]|   rms[RhoV]|   rms[RhoE]|          CL|          CD|
+-------------------------------------------------------------------------------------------------------+
|         951|           0|   -4.318466|   -1.240687|   -1.718937|    1.270960|    1.942563|    0.168850|
|         952|           0|   -4.371556|   -1.248154|   -1.721990|    1.217942|    1.942567|    0.168849|
|         953|           0|   -4.429224|   -1.292400|   -1.752046|    1.135781|    1.942569|    0.168846|
|         954|           0|   -4.461636|   -1.371323|   -1.803572|    1.044103|    1.942573|    0.168845|
|         955|           0|   -4.448938|   -1.490259|   -1.862093|    0.990935|    1.942575|    0.168843|
|         956|           0|   -4.400512|   -1.663890|   -1.901548|    1.023882|    1.942579|    0.168842|
|         957|           0|   -4.336586|   -1.861359|   -1.899689|    1.115354|    1.942581|    0.168841|
|         958|           0|   -4.266930|   -1.729447|   -1.858222|    1.221747|    1.942584|    0.168840|
|         959|           0|   -4.190979|   -1.450144|   -1.789327|    1.331130|    1.942587|    0.168839|
|         960|           0|   -4.106651|   -1.225074|   -1.700474|    1.442922|    1.942591|    0.168838|
+-----------------------------------------------------------------------+
|        File Writing Summary       |              Filename             |
+-----------------------------------------------------------------------+
|SU2 restart                        |solution_flow.dat                  |
|Paraview                           |flow.vtu                           |
|Paraview surface                   |surface_flow.vtu                   |
+-----------------------------------------------------------------------+

Writing the forces breakdown file (forces_breakdown.dat).
+-------------------------------------------------------------------------------------------------------+
|  Inner_Iter|   Time_Iter|    rms[Rho]|   rms[RhoU]|   rms[RhoV]|   rms[RhoE]|          CL|          CD|
+-------------------------------------------------------------------------------------------------------+
|         961|           0|   -4.129708|   -1.156683|   -1.666891|    1.439289|    1.942595|    0.168838|
|         962|           0|   -4.317181|   -1.264071|   -1.728016|    1.259754|    1.942599|    0.168837|
|         963|           0|   -4.440566|   -1.370202|   -1.787164|    1.104450|    1.942603|    0.168837|
|         964|           0|   -4.472461|   -1.472542|   -1.836191|    1.010046|    1.942607|    0.168837|
|         965|           0|   -4.466655|   -1.569236|   -1.874209|    0.974567|    1.942613|    0.168837|
|         966|           0|   -4.467626|   -1.657772|   -1.902236|    0.958309|    1.942618|    0.168838|
|         967|           0|   -4.486685|   -1.733669|   -1.921411|    0.935737|    1.942624|    0.168838|
|         968|           0|   -4.521764|   -1.792408|   -1.933665|    0.901872|    1.942630|    0.168839|
|         969|           0|   -4.570219|   -1.833113|   -1.941729|    0.856879|    1.942637|    0.168840|
|         970|           0|   -4.585671|   -1.934401|   -1.949415|    0.854070|    1.942643|    0.168841|
+-----------------------------------------------------------------------+
|        File Writing Summary       |              Filename             |
+-----------------------------------------------------------------------+
|SU2 restart                        |solution_flow.dat                  |
|Paraview                           |flow.vtu                           |
|Paraview surface                   |surface_flow.vtu                   |
+-----------------------------------------------------------------------+

Writing the forces breakdown file (forces_breakdown.dat).
+-------------------------------------------------------------------------------------------------------+
|  Inner_Iter|   Time_Iter|    rms[Rho]|   rms[RhoU]|   rms[RhoV]|   rms[RhoE]|          CL|          CD|
+-------------------------------------------------------------------------------------------------------+
|         971|           0|   -4.472712|   -1.911820|   -1.941600|    1.014991|    1.942651|    0.168842|
|         972|           0|   -4.374209|   -1.588860|   -1.895213|    1.153974|    1.942658|    0.168843|
|         973|           0|   -4.311909|   -1.394281|   -1.828370|    1.243936|    1.942666|    0.168845|
|         974|           0|   -4.292073|   -1.288116|   -1.770710|    1.283366|    1.942675|    0.168846|
|         975|           0|   -4.312463|   -1.243071|   -1.738643|    1.276055|    1.942684|    0.168848|
|         976|           0|   -4.362463|   -1.244322|   -1.736928|    1.228530|    1.942693|    0.168850|
|         977|           0|   -4.421197|   -1.283323|   -1.765147|    1.149938|    1.942702|    0.168852|
|         978|           0|   -4.458850|   -1.357058|   -1.819050|    1.057643|    1.942711|    0.168853|
|         979|           0|   -4.453060|   -1.469839|   -1.886015|    0.994149|    1.942721|    0.168855|
|         980|           0|   -4.408711|   -1.636202|   -1.938074|    1.013560|    1.942730|    0.168857|
+-----------------------------------------------------------------------+
|        File Writing Summary       |              Filename             |
+-----------------------------------------------------------------------+
|SU2 restart                        |solution_flow.dat                  |
|Paraview                           |flow.vtu                           |
|Paraview surface                   |surface_flow.vtu                   |
+-----------------------------------------------------------------------+

Writing the forces breakdown file (forces_breakdown.dat).
+-------------------------------------------------------------------------------------------------------+
|  Inner_Iter|   Time_Iter|    rms[Rho]|   rms[RhoU]|   rms[RhoV]|   rms[RhoE]|          CL|          CD|
+-------------------------------------------------------------------------------------------------------+
|         981|           0|   -4.346385|   -1.852049|   -1.943765|    1.099427|    1.942741|    0.168859|
|         982|           0|   -4.277807|   -1.784507|   -1.900563|    1.204694|    1.942751|    0.168861|
|         983|           0|   -4.203338|   -1.494458|   -1.826051|    1.313492|    1.942761|    0.168863|
|         984|           0|   -4.120177|   -1.258889|   -1.731850|    1.425226|    1.942771|    0.168864|
|         985|           0|   -4.100120|   -1.141237|   -1.669790|    1.466184|    1.942782|    0.168866|
|         986|           0|   -4.291286|   -1.249031|   -1.734129|    1.285842|    1.942793|    0.168868|
|         987|           0|   -4.427860|   -1.356223|   -1.800103|    1.124398|    1.942803|    0.168869|
|         988|           0|   -4.470957|   -1.460294|   -1.857295|    1.019580|    1.942813|    0.168871|
|         989|           0|   -4.467160|   -1.559476|   -1.903565|    0.977489|    1.942823|    0.168872|
|         990|           0|   -4.465814|   -1.651567|   -1.939196|    0.960790|    1.942833|    0.168873|
+-----------------------------------------------------------------------+
|        File Writing Summary       |              Filename             |
+-----------------------------------------------------------------------+
|SU2 restart                        |solution_flow.dat                  |
|Paraview                           |flow.vtu                           |
|Paraview surface                   |surface_flow.vtu                   |
+-----------------------------------------------------------------------+

Writing the forces breakdown file (forces_breakdown.dat).
+-------------------------------------------------------------------------------------------------------+
|  Inner_Iter|   Time_Iter|    rms[Rho]|   rms[RhoU]|   rms[RhoV]|   rms[RhoE]|          CL|          CD|
+-------------------------------------------------------------------------------------------------------+
|         991|           0|   -4.482692|   -1.732288|   -1.964732|    0.939301|    1.942843|    0.168874|
|         992|           0|   -4.515887|   -1.796400|   -1.981462|    0.906912|    1.942852|    0.168875|
|         993|           0|   -4.562600|   -1.841784|   -1.992269|    0.863576|    1.942862|    0.168876|
|         994|           0|   -4.602917|   -1.904506|   -2.001166|    0.830962|    1.942871|    0.168876|
|         995|           0|   -4.490101|   -1.992717|   -1.997144|    0.989777|    1.942880|    0.168877|
|         996|           0|   -4.386321|   -1.636127|   -1.945283|    1.136455|    1.942888|    0.168877|
|         997|           0|   -4.317187|   -1.419092|   -1.866571|    1.234977|    1.942896|    0.168877|
|         998|           0|   -4.290314|   -1.300039|   -1.797424|    1.282507|    1.942904|    0.168877|
|         999|           0|   -4.304825|   -1.246109|   -1.756503|    1.282293|    1.942912|    0.168877|

----------------------------- Solver Exit -------------------------------

Maximum number of iterations reached (ITER = 1000) before convergence.
+-----------------------------------------------------------------------+
|      Convergence Field     |     Value    |   Criterion  |  Converged |
+-----------------------------------------------------------------------+
|                  Cauchy[CD]|    9.2302e-06|       < 1e-10|          No|
+-----------------------------------------------------------------------+
-------------------------------------------------------------------------
+-----------------------------------------------------------------------+
|        File Writing Summary       |              Filename             |
+-----------------------------------------------------------------------+
|SU2 restart                        |solution_flow.dat                  |
|Paraview                           |flow.vtu                           |
|Paraview surface                   |surface_flow.vtu                   |
+-----------------------------------------------------------------------+

Writing the forces breakdown file (forces_breakdown.dat).

------------------------- Solver Postprocessing -------------------------
Deleted CNumerics container.
Deleted CIntegration container.
Deleted CSolver container.
Deleted CIteration container.
Deleted CInterpolator container.
Deleted CInterface container.
Deleted CGeometry container.
Deleted CFreeFormDefBox class.
Deleted CSurfaceMovement class.
Deleted CVolumetricMovement class.
Deleted CConfig container.
Deleted nInst container.
Deleted COutput class.
-------------------------------------------------------------------------

------------------------- Exit Success (SU2_CFD) ------------------------

