/batch
/config,noeldb,1     ! force off writing results to database
*get,_wallstrt,active,,time,wall
! ANSYS input file written by Workbench version 2020 R1
! File used for geometry attach: A:\Documents\ICL\PDM\aeroframe_2\test\static\7_wingWindTunnel\AnsysPart\simulation1_files\dp0\SYS-1\DM\SYS-1.scdoc
/title,simulation1--Structure statique (A5)
*DIM,_wb_ProjectScratch_dir,string,248
_wb_ProjectScratch_dir(1) = 'A:\Documents\ICL\PDM\aeroframe_2\test\static\7_wingWindTunnel\AnsysPart\_ProjectScratch\Scr17A3\'
*DIM,_wb_SolverFiles_dir,string,248
_wb_SolverFiles_dir(1) = 'A:\Documents\ICL\PDM\aeroframe_2\test\static\7_wingWindTunnel\AnsysPart\simulation1_files\dp0\SYS-1\MECH\'
*DIM,_wb_userfiles_dir,string,248
_wb_userfiles_dir(1) = 'A:\Documents\ICL\PDM\aeroframe_2\test\static\7_wingWindTunnel\AnsysPart\simulation1_files\user_files\'
/com,--- Data in consistent MKS units. See Solving Units in the help system for more information.
/units,MKS
/nopr
/wb,file,start              !  signify a WB generated input file
/prep7
! Turn off shape checking because checks already performed inside WB mesher.
! See help system for more information.
SHPP,OFF,,NOWARN
/nolist
etcon,set             ! allow ANSYS to choose best KEYOP's for 180x elements
/com,*********** Nodes for the whole assembly ***********
nblock,3,,5134
(1i9,3e20.9e3)
        1     3.789582414E-02    -5.005205920E-01     3.779644666E-02
        2     1.878958241E-01    -5.005205920E-01     3.779644666E-02
        3     8.700234420E-02    -5.005431111E-01     3.753905188E-02
        4     1.374505099E-01    -5.004064626E-01     3.910095138E-02
        5     3.849290279E-02    -5.006419714E-01     3.640907297E-02
        6     1.501557100E-01    -4.995933032E-01     4.839540612E-02
        7     1.114322783E-01    -4.990554562E-01     5.454302490E-02
        8     7.231964451E-02    -4.991166151E-01     5.384397535E-02
        9     1.557983758E-01    -5.000660198E-01     4.299223031E-02
       10     4.341651082E-02    -5.004246498E-01     3.889307018E-02
       11     1.179546802E-01    -4.994654954E-01     4.985625621E-02
       12     7.956097547E-02    -4.993805509E-01     5.082717555E-02
       13     8.082528149E-02    -5.002311316E-01     4.110499430E-02
       14     1.182933819E-01    -5.000863157E-01     4.276024772E-02
       15     1.014288454E-01    -2.437369467E-19    -7.961052833E-03
       16     1.100755504E-01    -5.005210005E-02    -3.385299148E-03
       17     1.187222678E-01    -1.001042727E-01     1.190461177E-03
       18     1.273689988E-01    -1.501565233E-01     5.766228619E-03
       19     1.360157369E-01    -2.002088153E-01     1.034199986E-02
       20     1.446615839E-01    -2.502559492E-01     1.491729954E-02
! ... 4649 like lines cut
/wb,elem,start            !  set before creation of elements
/com,*********** Elements for Body 1 "SYS-1\Open CASCADE STEP translator 6.8 3" ***********
et,1,187
eblock,19,solid,,2237
(19i9)
        1        1        1        1        0        0        0        0       10        0        1      229      275      654      405     2478     2620     2482     2479
     2617     3235
        1        1        1        1        0        0        0        0       10        0        2      229      275      417      654     2478     2618     2481     2482
     2620     3249
        1        1        1        1        0        0        0        0       10        0        3      229      417      406      654     2481     3236     2480     2482
     3249     3238
        1        1        1        1        0        0        0        0       10        0        4      277      647      592      654     2629     4067     2628     2630
     4343     4068
        1        1        1        1        0        0        0        0       10        0        5       24      592      277      647      968     2628      965      970
     4067     2629
        1        1        1        1        0        0        0        0       10        0        6      124      592      127      153     1766     1784     1761     1762
     1915     1780
        1        1        1        1        0        0        0        0       10        0        7      178      319      592      647     2094     2818     2096     2098
     2820     4067
        1        1        1        1        0        0        0        0       10        0        8      124      592      225      319     1766     2467     1763     1765
     2818     2463
        1        1        1        1        0        0        0        0       10        0        9       53      592      178      580     1199     2096     1196     1198
     4037     2095
        1        1        1        1        0        0        0        0       10        0       10      178      319      647      622     2094     2820     2098     2097
     2819     4261
! ... 4455 like lines cut
!Material Id = {A6427E12-0014-40C4-A9D5-F7B93C7CD91F}
/wb,elem,end               !  done creating elements
/com,*********** Send User Defined Coordinate System(s) ***********
csys,0
toffst,273.15,  ! Temperature offset from absolute zero
/com,*********** Set Reference Temperature ***********
tref,22.
/wb,mat,start              !  starting to send materials
/com,*********** Send Materials ***********
MP,EX,1,12000000,	! Pa
MP,NUXY,1,0.3,
MP,DENS,1,1190,	! kg m^-3

/wb,mat,end                !  done sending materials
!************************* Model Summary ********************
!SYS-1\Open CASCADE STEP translator 6.8 3,	NinjaFlex,	matid,	1
!************************* End Model Summary ********************
! get the diagonal of the bounding box. Needed later for other things
*get,_xmin,node,,mnloc,x
*get,_ymin,node,,mnloc,y
*get,_zmin,node,,mnloc,z
*get,_xmax,node,,mxloc,x
*get,_ymax,node,,mxloc,y
*get,_zmax,node,,mxloc,z
_ASMDIAG=(_xmax-_xmin)*(_xmax-_xmin)+(_ymax-_ymin)*(_ymax-_ymin)+(_zmax-_zmin)*(_zmax-_zmin)
_ASMDIAG=SQRT(_ASMDIAG)
/wb,contact,start          !  starting to send contact
/wb,contact,end            !  done creating contacts
/golist
/wb,load,start             !  starting to send loads
/com,*********** Fixed Supports ***********
CMBLOCK,_FIXEDSU,NODE,       72
(8i10)
        15        25        26        27        28        29        40        41
        42        43       155       156       157       158       159       172
       173       174       175       176       279       280       281       282
       283       284       285       286       287       311       312       313
       314       315       316       317       900       901       972       974
       979       980       987       988       993       994      1002      1003
      1080      1081      1090      1091      1100      1101      1107      1108
      1920      1929      1930      1939      1940      1949      1950      1959
      1960      2053      2054      2062      2063      2068      2069      2074

cmsel,s,_FIXEDSU
d,all,all
nsel,all
/com,*********** Define Pressure Using Surface Effect Elements ***********
et,2,154
eblock,10,,,426
(15i9)
     3856        2        2        2        0      484      499      521      521     3566     3681      521     3569
     3857        2        2        2        0      490      512      496      496     3624     3665      496     3621
     3858        2        2        2        0      485      499      512      512     3578     3679      512     3580
     3859        2        2        2        0      479      491      524      524     3527     3633      524     3530
     3860        2        2        2        0      493      509      498      498     3645     3675      498     3644
     3861        2        2        2        0      479      489      491      491     3526     3612      491     3527
     3862        2        2        2        0      491      515      505      505     3632     3708      505     3631
     3863        2        2        2        0      481      506      519      519     3545     3713      519     3546
     3864        2        2        2        0      500      523      533      533     3690     3771      533     3691
     3865        2        2        2        0      488      520      513      513     3604     3736      513     3602
     3866        2        2        2        0      480      503      490      490     3539     3622      490     3537
     3867        2        2        2        0      505      515      530      530     3708     3746      530     3709
     3868        2        2        2        0      490      503      504      504     3622     3703      504     3623
     3869        2        2        2        0      495      512      534      534     3660     3732      534     3662
     3870        2        2        2        0      486      511      502      502     3590     3699      502     3588
     3871        2        2        2        0      486      508      511      511     3589     3721      511     3590
     3872        2        2        2        0      486      523      500      500     3591     3690      500     3587
     3873        2        2        2        0      482      493      519      519     3551     3646      519     3552
     3874        2        2        2        0      492      510      509      509     3640     3725      509     3639
     3875        2        2        2        0      492      509      493      493     3639     3645      493     3638
! ... 407 like lines cut
esel,s,type,,2
esel,all
esel,all
/gst,on,on
fini
*get,_numnode,node,0,count
*get,_numelem,elem,0,count
*get, _MAXELEMNUM, elem, 0, NUM, MAX
*get, _MAXNODENUM, node, 0, NUM, MAX
*get, _MAXELEMTYPE, etyp, 0, NUM, MAX
*get, _MAXREALCONST, real, 0, NUM, MAX
/go
/wb,load,end               !  done creating loads
/com,--- Number of total nodes = %_numnode%
/com,--- Number of contact elements = 426
/com,--- Number of spring elements = 0
/com,--- Number of bearing elements = 0
/com,--- Number of solid elements = 2237
/com,--- Number of condensed parts = 0
/com,--- Number of total elements = %_numelem%
*get,_wallbsol,active,,time,wall
/com,****************************************************************************
/com,*************************    SOLUTION       ********************************
/com,****************************************************************************
/solu
antype,0                   ! static analysis
_thickRatio=  0     ! Ratio of thick parts in the model
eqsl,sparse,,,,,1
cntr,print,1               ! print out contact info and also make no initial contact an error
dmpoption,emat,no             ! Don't combine emat file for DANSYS
dmpoption,esav,no             ! Don't combine esav file for DANSYS
nldiag,cont,iter           ! print out contact info each equilibrium iteration
rescontrol,,none                 ! Do not keep any restart files
/com,****************************************************
/com,******************* SOLVE FOR LS 1 OF 1 ****************
esel,s,type,,2
nsle
sf,all,pres,-20.
nsel,all
esel,all
esel,all
/nopr
/gopr
nsub,1,1,1
time,1.
outres,erase
outres,all,none
outres,nsol,all,
outres,rsol,all
outres,eangl,all
outres,etmp,all
outres,veng,all
outres,strs,all,
outres,epel,all,
outres,eppl,all,
outres,cont,all,
! *********** WB SOLVE COMMAND ***********
! check interactive state
*get,ANSINTER_,active,,int
*if,ANSINTER_,ne,0,then
/eof
*endif
solve
/com *************** Write FE CONNECTORS ********* 
CEWRITE,file,ce,,INTE
/com,****************************************************
/com,*************** FINISHED SOLVE FOR LS 1 *************
*get,_wallasol,active,,time,wall
/nopr
*get,_numnode,node,0,count
*get,_numelem,elem,0,count
*get, _MAXELEMNUM, elem, 0, NUM, MAX
*get, _MAXNODENUM, node, 0, NUM, MAX,,,INTERNAL
*get, _MAXELEMTYPE, etyp, 0, NUM, MAX
*get, _MAXREALCONST, real, 0, NUM, MAX
/gopr
/post1
xmlo,ENCODING,ISO-8859-1
xmlo,parm
/xml,parm,xml
fini
/gopr
*get,_walldone,active,,time,wall
_preptime=(_wallbsol-_wallstrt)*3600
_solvtime=(_wallasol-_wallbsol)*3600
_posttime=(_walldone-_wallasol)*3600
_totaltim=(_walldone-_wallstrt)*3600
*get,_dlbratio,active,0,solu,dlbr
*get,_combtime,active,0,solu,comb
/com,--- Number of total nodes = %_numnode%
/com,--- Number of total elements = %_numelem%
/com,--- Element load balance ratio = %_dlbratio%
/com,--- Time to combine distributed files = %_combtime%
/wb,file,end               ! done with WB generated input
