
-------------------------------------------------------------------------
|    ___ _   _ ___                                                      |
|   / __| | | |_  )   Release 7.0.3 "Blackbird"                       |
|   \__ \ |_| |/ /                                                    |
|   |___/\___//___|   Suite (Computational Fluid Dynamics Code)        |
|                                                                       |
-------------------------------------------------------------------------
| SU2 Project Website: https://su2code.github.io                        |
|                                                                       |
| The SU2 Project is maintained by the SU2 Foundation                   |
| (http://su2foundation.org)                                            |
-------------------------------------------------------------------------
| Copyright 2012-2020, SU2 Contributors                                 |
|                                                                       |
| SU2 is free software; you can redistribute it and/or                  |
| modify it under the terms of the GNU Lesser General Public            |
| License as published by the Free Software Foundation; either          |
| version 2.1 of the License, or (at your option) any later version.    |
|                                                                       |
| SU2 is distributed in the hope that it will be useful,                |
| but WITHOUT ANY WARRANTY; without even the implied warranty of        |
| MERCHANTABILITY or FITNESS FOR A PARTICULAR PURPOSE. See the GNU      |
| Lesser General Public License for more details.                       |
|                                                                       |
| You should have received a copy of the GNU Lesser General Public      |
| License along with SU2. If not, see <http://www.gnu.org/licenses/>.   |
-------------------------------------------------------------------------


Problem definition:

Compressible Euler equations.
Mach number: 0.3.
Angle of attack (AoA): 2 deg, and angle of sideslip (AoS): 0 deg.
Dimensional simulation.
The reference area is 55.7983 m^2.
The reference length is 1.8008 m.


Problem definition:

Inviscid flow: Computing density based on free-stream
temperature and pressure using the ideal gas law.
Force coefficients computed using free-stream values.
-- Input conditions:
Fluid Model: STANDARD_AIR 
Specific gas constant: 287.058 N.m/kg.K.
Specific gas constant (non-dim): 287.058
Specific Heat Ratio: 1.4000 
Free-stream static pressure: 101325 Pa.
Free-stream total pressure: 107853 Pa.
Free-stream temperature: 288.15 K.
Free-stream total temperature: 293.337 K.
Free-stream density: 1.22498 kg/m^3.
Free-stream velocity: (102.027, 0, 3.56286) m/s. Magnitude: 102.089 m/s.
Free-stream total energy per unit mass: 212000 m^2/s^2.
-- Reference values:
Reference specific gas constant: 1 N.m/kg.K.
Reference pressure: 1 Pa.
Reference temperature: 1 K.
Reference density: 1 kg/m^3.
Reference velocity: 1 m/s.
Reference energy per unit mass: 1 m^2/s^2.
-- Resulting non-dimensional state:
Mach number (non-dim): 0.3
Specific gas constant (non-dim): 287.058
Free-stream temperature (non-dim): 288.15
Free-stream pressure (non-dim): 101325
Free-stream density (non-dim): 1.22498
Free-stream velocity (non-dim): (102.027, 0, 3.56286). Magnitude: 102.089
Free-stream total energy per unit mass (non-dim): 212000


Forces breakdown:

Center of Pressure: X=0.013984Z+9.703042 m.

NOTE: Multiply forces by the non-dimensional factor: 356187.053093, and the reference factor: 1.000000
to obtain the dimensional force.

Total CL:       0.206290 | Pressure (   99%):    0.206290 | Friction (    0%):    0.000000 | Momentum (    0%):    0.000000
Total CD:       0.010093 | Pressure (   99%):    0.010093 | Friction (    0%):    0.000000 | Momentum (    0%):    0.000000
Total CSF:     -0.006878 | Pressure (  100%):   -0.006878 | Friction (    0%):    0.000000 | Momentum (    0%):    0.000000
Total CL/CD:   20.437995 | Pressure (  100%):   20.437995 | Friction (    0%):    0.000000 | Momentum (    0%):    0.000000
Total CMx:      0.003925 | Pressure (   99%):    0.003925 | Friction (    0%):    0.000000 | Momentum (    0%):    0.000000
Total CMy:     -0.014552 | Pressure (  100%):   -0.014552 | Friction (    0%):    0.000000 | Momentum (    0%):    0.000000
Total CMz:     -0.011565 | Pressure (  100%):   -0.011565 | Friction (    0%):    0.000000 | Momentum (    0%):    0.000000
Total CFx:      0.002888 | Pressure (   99%):    0.002888 | Friction (    0%):    0.000000 | Momentum (    0%):    0.000000
Total CFy:     -0.006878 | Pressure (  100%):   -0.006878 | Friction (    0%):    0.000000 | Momentum (    0%):    0.000000
Total CFz:      0.206517 | Pressure (   99%):    0.206517 | Friction (    0%):    0.000000 | Momentum (    0%):    0.000000


Surface name: VTP

Total CL    (    0%):    0.000204 | Pressure (   99%):    0.000204 | Friction (    0%):    0.000000 | Momentum (    0%):    0.000000
Total CD    (    3%):    0.000391 | Pressure (   99%):    0.000391 | Friction (    0%):    0.000000 | Momentum (    0%):    0.000000
Total CSF   (  -10%):    0.000690 | Pressure (   99%):    0.000690 | Friction (    0%):    0.000000 | Momentum (    0%):    0.000000
Total CL/CD (    2%):    0.522557 | Pressure (   99%):    0.522557 | Friction (    0%):    0.000000 | Momentum (    0%):    0.000000
Total CMx   (  -18%):   -0.000743 | Pressure (  100%):   -0.000743 | Friction (    0%):    0.000000 | Momentum (    0%):    0.000000
Total CMy   (    1%):   -0.000219 | Pressure (  100%):   -0.000219 | Friction (    0%):    0.000000 | Momentum (    0%):    0.000000
Total CMz   (  -19%):    0.002258 | Pressure (   99%):    0.002258 | Friction (    0%):    0.000000 | Momentum (    0%):    0.000000
Total CFx   (   13%):    0.000384 | Pressure (   99%):    0.000384 | Friction (    0%):    0.000000 | Momentum (    0%):    0.000000
Total CFy   (  -10%):    0.000690 | Pressure (   99%):    0.000690 | Friction (    0%):    0.000000 | Momentum (    0%):    0.000000
Total CFz   (    0%):    0.000218 | Pressure (   99%):    0.000218 | Friction (    0%):    0.000000 | Momentum (    0%):    0.000000

Surface name: Fuselage

Total CL    (   11%):    0.023139 | Pressure (   99%):    0.023139 | Friction (    0%):    0.000000 | Momentum (    0%):    0.000000
Total CD    (   11%):    0.001199 | Pressure (   99%):    0.001199 | Friction (    0%):    0.000000 | Momentum (    0%):    0.000000
Total CSF   (   92%):   -0.006335 | Pressure (  100%):   -0.006335 | Friction (    0%):    0.000000 | Momentum (    0%):    0.000000
Total CL/CD (   94%):   19.300279 | Pressure (  100%):   19.300279 | Friction (    0%):    0.000000 | Momentum (    0%):    0.000000
Total CMx   (   45%):    0.001790 | Pressure (   99%):    0.001790 | Friction (    0%):    0.000000 | Momentum (    0%):    0.000000
Total CMy   (  -66%):    0.009657 | Pressure (   99%):    0.009657 | Friction (    0%):    0.000000 | Momentum (    0%):    0.000000
Total CMz   (   55%):   -0.006416 | Pressure (  100%):   -0.006416 | Friction (    0%):    0.000000 | Momentum (    0%):    0.000000
Total CFx   (   13%):    0.000391 | Pressure (   99%):    0.000391 | Friction (    0%):    0.000000 | Momentum (    0%):    0.000000
Total CFy   (   92%):   -0.006335 | Pressure (  100%):   -0.006335 | Friction (    0%):    0.000000 | Momentum (    0%):    0.000000
Total CFz   (   11%):    0.023167 | Pressure (   99%):    0.023167 | Friction (    0%):    0.000000 | Momentum (    0%):    0.000000

Surface name: HTP

Total CL    (  -12%):   -0.024842 | Pressure (  100%):   -0.024842 | Friction (    0%):    0.000000 | Momentum (    0%):    0.000000
Total CD    (  -10%):   -0.001012 | Pressure (  100%):   -0.001012 | Friction (    0%):    0.000000 | Momentum (    0%):    0.000000
Total CSF   (    0%):    0.000037 | Pressure (   99%):    0.000037 | Friction (    0%):    0.000000 | Momentum (    0%):    0.000000
Total CL/CD (  120%):   24.541970 | Pressure (  100%):   24.541970 | Friction (    0%):    0.000000 | Momentum (    0%):    0.000000
Total CMx   (   -3%):   -0.000147 | Pressure (  100%):   -0.000147 | Friction (    0%):    0.000000 | Momentum (    0%):    0.000000
Total CMy   ( -577%):    0.084010 | Pressure (   99%):    0.084010 | Friction (    0%):    0.000000 | Momentum (    0%):    0.000000
Total CMz   (   -1%):    0.000135 | Pressure (   99%):    0.000135 | Friction (    0%):    0.000000 | Momentum (    0%):    0.000000
Total CFx   (   -5%):   -0.000145 | Pressure (  100%):   -0.000145 | Friction (    0%):    0.000000 | Momentum (    0%):    0.000000
Total CFy   (    0%):    0.000037 | Pressure (   99%):    0.000037 | Friction (    0%):    0.000000 | Momentum (    0%):    0.000000
Total CFz   (  -12%):   -0.024862 | Pressure (  100%):   -0.024862 | Friction (    0%):    0.000000 | Momentum (    0%):    0.000000

Surface name: Wing

Total CL    (  100%):    0.207788 | Pressure (   99%):    0.207788 | Friction (    0%):    0.000000 | Momentum (    0%):    0.000000
Total CD    (   94%):    0.009516 | Pressure (   99%):    0.009516 | Friction (    0%):    0.000000 | Momentum (    0%):    0.000000
Total CSF   (   18%):   -0.001270 | Pressure (  100%):   -0.001270 | Friction (    0%):    0.000000 | Momentum (    0%):    0.000000
Total CL/CD (  106%):   21.836787 | Pressure (  100%):   21.836787 | Friction (    0%):    0.000000 | Momentum (    0%):    0.000000
Total CMx   (   77%):    0.003025 | Pressure (   99%):    0.003025 | Friction (    0%):    0.000000 | Momentum (    0%):    0.000000
Total CMy   (  742%):   -0.108000 | Pressure (  100%):   -0.108000 | Friction (    0%):    0.000000 | Momentum (    0%):    0.000000
Total CMz   (   65%):   -0.007541 | Pressure (  100%):   -0.007541 | Friction (    0%):    0.000000 | Momentum (    0%):    0.000000
Total CFx   (   78%):    0.002258 | Pressure (   99%):    0.002258 | Friction (    0%):    0.000000 | Momentum (    0%):    0.000000
Total CFy   (   18%):   -0.001270 | Pressure (  100%):   -0.001270 | Friction (    0%):    0.000000 | Momentum (    0%):    0.000000
Total CFz   (  100%):    0.207994 | Pressure (   99%):    0.207994 | Friction (    0%):    0.000000 | Momentum (    0%):    0.000000

