
-------------------------------------------------------------------------
|    ___ _   _ ___                                                      |
|   / __| | | |_  )   Release 7.0.3 "Blackbird"                         |
|   \__ \ |_| |/ /                                                      |
|   |___/\___//___|   Suite (Computational Fluid Dynamics Code)         |
|                                                                       |
-------------------------------------------------------------------------
| SU2 Project Website: https://su2code.github.io                        |
|                                                                       |
| The SU2 Project is maintained by the SU2 Foundation                   |
| (http://su2foundation.org)                                            |
-------------------------------------------------------------------------
| Copyright 2012-2020, SU2 Contributors                                 |
|                                                                       |
| SU2 is free software; you can redistribute it and/or                  |
| modify it under the terms of the GNU Lesser General Public            |
| License as published by the Free Software Foundation; either          |
| version 2.1 of the License, or (at your option) any later version.    |
|                                                                       |
| SU2 is distributed in the hope that it will be useful,                |
| but WITHOUT ANY WARRANTY; without even the implied warranty of        |
| MERCHANTABILITY or FITNESS FOR A PARTICULAR PURPOSE. See the GNU      |
| Lesser General Public License for more details.                       |
|                                                                       |
| You should have received a copy of the GNU Lesser General Public      |
| License along with SU2. If not, see <http://www.gnu.org/licenses/>.   |
-------------------------------------------------------------------------

Parsing config file for zone 0

----------------- Physical Case Definition ( Zone 0 ) -------------------
Compressible Euler equations.
Mach number: 0.294.
Angle of attack (AoA): 10 deg, and angle of sideslip (AoS): 0 deg.
No restart solution, use the values at infinity (freestream).
Dimensional simulation.
The reference area is 10 m^2.
The semi-span will be computed using the max y(3D) value.
The reference length is 1 m.
Reference origin for moment evaluation is (0, 0, 0).
Surface(s) where the force coefficients are evaluated: Wing_1.

Surface(s) where the objective function is evaluated: airfoil.
Surface(s) plotted in the output file: Wing_1.
Surface(s) to be analyzed in detail: airfoil.
Surface(s) affected by the design variables: Wing_1.
Input mesh file name: deformed.su2

--------------- Space Numerical Integration ( Zone 0 ) ------------------
Roe (with entropy fix = 0) solver for the flow inviscid terms.
Roe with DDES's FD low-dissipation function.
Second order integration in space, with slope limiter.
Venkatakrishnan slope-limiting method, with constant: 0.05. 
The reference element size is: 1. 
Gradient for upwind reconstruction: Green-Gauss.
Gradient for viscous and source terms: Green-Gauss.

--------------- Time Numerical Integration  ( Zone 0 ) ------------------
Local time stepping (steady state simulation).
Euler implicit method for the flow equations.
FGMRES is used for solving the linear system.
Using a ILU(0) preconditioning.
Convergence criteria of the linear solver: 1e-06.
Max number of linear iterations: 5.
V Multigrid Cycle, with 3 multigrid levels.
Damping factor for the residual restriction: 0.75.
Damping factor for the correction prolongation: 0.75.
No CFL adaptation.
+-------------------------------------------+
|  MG Level| Presmooth|PostSmooth|CorrectSmo|
+-------------------------------------------+
|         0|         1|         0|         0|
|         1|         2|         0|         0|
|         2|         3|         0|         0|
|         3|         3|         0|         0|
+-------------------------------------------+
Courant-Friedrichs-Lewy number:        1

------------------ Convergence Criteria  ( Zone 0 ) ---------------------
Maximum number of solver subiterations: 1000.
Begin convergence monitoring at iteration 10.
Residual minimum value: 1e-8.
Cauchy series min. value: 1e-10.
Number of Cauchy elements: 100.
Begin windowed time average at iteration 15.

-------------------- Output Information ( Zone 0 ) ----------------------
Writing solution files every 10 iterations.
Writing the convergence history file every 1 inner iterations.
Writing the screen convergence history every 1 inner iterations.
The tabular file format is Tecplot (.dat).
Convergence history file name: history.
Forces breakdown file name: forces_breakdown.dat.
Surface file name: surface_flow.
Volume file name: flow.
Restart file name: solution_flow.dat.

------------- Config File Boundary Information ( Zone 0 ) ---------------
+-----------------------------------------------------------------------+
|                        Marker Type|                        Marker Name|
+-----------------------------------------------------------------------+
|                         Euler wall|                             Wing_1|
+-----------------------------------------------------------------------+
|                          Far-field|                           Farfield|
+-----------------------------------------------------------------------+
|                     Symmetry plane|                                  0|
+-----------------------------------------------------------------------+
|           Deformable mesh boundary|                            airfoil|
+-----------------------------------------------------------------------+

-------------------- Output Preprocessing ( Zone 0 ) --------------------
Screen output fields: INNER_ITER, TIME_ITER, RMS_DENSITY, RMS_MOMENTUM-X, RMS_MOMENTUM-Y, RMS_ENERGY, LIFT, DRAG
  Info: Ignoring the following history output groups:
  TIME_ITER
History output group(s): ITER, RMS_RES, AERO_COEFF
Warning: No (valid) fields chosen for convergence monitoring. Convergence monitoring inactive.
Warning: No (valid) fields chosen for time convergence monitoring. Time convergence monitoring inactive.
Volume output fields: COORDINATES, SOLUTION, PRIMITIVE

------------------- Geometry Preprocessing ( Zone 0 ) -------------------
Three dimensional problem.
142678 grid points before partitioning.
739205 volume elements before partitioning.
2 surface markers.
99234 boundary elements in index 0 (Marker = Wing_1).
1280 boundary elements in index 1 (Marker = Farfield).
Executing the partitioning functions.
Building the graph adjacency structure.
Calling ParMETIS... graph partitioning complete (18884 edge cuts).
Distributing ParMETIS coloring.
Rebalancing vertices.
Rebalancing volume element connectivity.
Rebalancing markers and surface elements.
153425 vertices including ghost points. 
767118 interior elements including halo cells. 
767118 tetrahedra.
Establishing MPI communication patterns.
Setting point connectivity.
Renumbering points (Reverse Cuthill McKee Ordering).
Recomputing point connectivity.
Setting element connectivity.
Checking the numerical grid orientation.
Identifying edges and vertices.
Computing centers of gravity.
Setting the control volume structure.
Volume of the computational grid: 587307.
Searching for the closest normal neighbors to the surfaces.
Storing a mapping from global to local point index.
Compute the surface curvature.
Max K: 955.037. Mean K: 12.8968. Standard deviation K: 55.041.
Checking for periodicity.
Computing mesh quality statistics for the dual control volumes.
+--------------------------------------------------------------+
|           Mesh Quality Metric|        Minimum|        Maximum|
+--------------------------------------------------------------+
|    Orthogonality Angle (deg.)|        46.5932|        85.7684|
|     CV Face Area Aspect Ratio|        1.42425|        37.0648|
|           CV Sub-Volume Ratio|        1.02915|        142.587|
+--------------------------------------------------------------+
Setting the multigrid structure.
+-------------------------------------------+
|  MG Level|       CVs|Aggl. Rate|       CFL|
+-------------------------------------------+
|         0|    153425|    1/1.00|         1|
|         1|     27876|     1/5.5|  0.849577|
|         2|      6802|     1/4.1|  0.796335|
Finding max control volume width.
Communicating number of neighbors.
Semi-span length = 4.99371 m.
Wetted area = 42.1918 m^2.
Area projection in the x-plane = 3.07295 m^2, y-plane = 1.46965 m^2, z-plane = 20.1061 m^2.
Max. coordinate in the x-direction = 1.02229 m, y-direction = 4.99371 m, z-direction = 0.465456 m.
Min. coordinate in the x-direction = -1.02393 m, y-direction = -4.99321 m, z-direction = -0.119527 m.
Checking if Euler & Symmetry markers are straight/plane:
Boundary marker Wing_1 is NOT a single plane.
Boundary marker 0 is a single plane.

-------------------- Solver Preprocessing ( Zone 0 ) --------------------
Inviscid flow: Computing density based on free-stream
temperature and pressure using the ideal gas law.
Force coefficients computed using free-stream values.

-- Models:
+------------------------------------------------------------------------------+
|          Viscosity Model|        Conductivity Model|              Fluid Model|
+------------------------------------------------------------------------------+
|                        -|                         -|             STANDARD_AIR|
+------------------------------------------------------------------------------+
-- Fluid properties:
+------------------------------------------------------------------------------+
|                  Name|    Dim. value|    Ref. value|      Unit|Non-dim. value|
+------------------------------------------------------------------------------+
|          Gas Constant|       287.058|             1|  N.m/kg.K|       287.058|
|      Spec. Heat Ratio|             -|             -|         -|           1.4|
+------------------------------------------------------------------------------+
-- Initial and free-stream conditions:
+------------------------------------------------------------------------------+
|                  Name|    Dim. value|    Ref. value|      Unit|Non-dim. value|
+------------------------------------------------------------------------------+
|       Static Pressure|        101325|             1|        Pa|        101325|
|               Density|       1.22498|             1|    kg/m^3|       1.22498|
|           Temperature|        288.15|             1|         K|        288.15|
|          Total Energy|        211794|             1|   m^2/s^2|        211794|
|            Velocity-X|       98.5274|             1|       m/s|       98.5274|
|            Velocity-Y|             0|             1|       m/s|             0|
|            Velocity-Z|        17.373|             1|       m/s|        17.373|
|    Velocity Magnitude|       100.047|             1|       m/s|       100.047|
+------------------------------------------------------------------------------+
|           Mach Number|             -|             -|         -|         0.294|
+------------------------------------------------------------------------------+
Initialize Jacobian structure (Euler). MG level: 0.
Initialize Jacobian structure (Euler). MG level: 1.
Initialize Jacobian structure (Euler). MG level: 2.

------------------- Numerics Preprocessing ( Zone 0 ) -------------------

----------------- Integration Preprocessing ( Zone 0 ) ------------------

------------------- Iteration Preprocessing ( Zone 0 ) ------------------
Euler/Navier-Stokes/RANS fluid iteration.

------------------------------ Begin Solver -----------------------------

Simulation Run using the Single-zone Driver
+-------------------------------------------------------------------------------------------------------+
|  Inner_Iter|   Time_Iter|    rms[Rho]|   rms[RhoU]|   rms[RhoV]|   rms[RhoE]|          CL|          CD|
+-------------------------------------------------------------------------------------------------------+
|           0|           0|   -1.664896|    0.503465|   -0.373709|    3.804204|    2.083410|    0.936672|
|           1|           0|   -1.773086|    0.413017|   -0.142110|    3.696310|    3.628215|    1.617070|
|           2|           0|   -1.776015|    0.444049|    0.048101|    3.695136|    4.705992|    2.075763|
|           3|           0|   -1.721816|    0.529186|    0.164893|    3.750130|    5.399743|    2.351102|
|           4|           0|   -1.659071|    0.625063|    0.260430|    3.813253|    5.787567|    2.479593|
|           5|           0|   -1.600733|    0.721578|    0.352628|    3.872144|    5.940098|    2.495381|
|           6|           0|   -1.547105|    0.816383|    0.445834|    3.926554|    5.917818|    2.428586|
|           7|           0|   -1.497167|    0.907656|    0.539612|    3.977396|    5.771542|    2.304769|
|           8|           0|   -1.450698|    0.993877|    0.632472|    4.024783|    5.543897|    2.145401|
|           9|           0|   -1.408043|    1.073881|    0.722859|    4.068270|    5.269430|    1.968011|
|          10|           0|   -1.369986|    1.147068|    0.809568|    4.107010|    4.973085|    1.785615|
+-----------------------------------------------------------------------+
|        File Writing Summary       |              Filename             |
+-----------------------------------------------------------------------+
|SU2 restart                        |solution_flow.dat                  |
|Paraview                           |flow.vtu                           |
|Paraview surface                   |surface_flow.vtu                   |
+-----------------------------------------------------------------------+

Writing the forces breakdown file (forces_breakdown.dat).
+-------------------------------------------------------------------------------------------------------+
|  Inner_Iter|   Time_Iter|    rms[Rho]|   rms[RhoU]|   rms[RhoV]|   rms[RhoE]|          CL|          CD|
+-------------------------------------------------------------------------------------------------------+
|          11|           0|   -1.336971|    1.213273|    0.891624|    4.140496|    4.671384|    1.606885|
|          12|           0|   -1.309563|    1.272422|    0.968361|    4.168065|    4.375168|    1.437482|
|          13|           0|   -1.288015|    1.324635|    1.039245|    4.189347|    4.090619|    1.280466|
|          14|           0|   -1.272311|    1.370074|    1.103899|    4.204195|    3.820115|    1.136768|
|          15|           0|   -1.262279|    1.408911|    1.162201|    4.212590|    3.563420|    1.005903|
|          16|           0|   -1.257358|    1.441318|    1.214066|    4.214824|    3.318617|    0.886511|
|          17|           0|   -1.256459|    1.467429|    1.259513|    4.211725|    3.082983|    0.776793|
|          18|           0|   -1.257809|    1.487449|    1.298554|    4.204901|    2.853556|    0.674850|
|          19|           0|   -1.258886|    1.501528|    1.331180|    4.197005|    2.627606|    0.578907|
|          20|           0|   -1.256872|    1.509924|    1.357573|    4.191557|    2.402955|    0.487483|
+-----------------------------------------------------------------------+
|        File Writing Summary       |              Filename             |
+-----------------------------------------------------------------------+
|SU2 restart                        |solution_flow.dat                  |
|Paraview                           |flow.vtu                           |
|Paraview surface                   |surface_flow.vtu                   |
+-----------------------------------------------------------------------+

Writing the forces breakdown file (forces_breakdown.dat).
+-------------------------------------------------------------------------------------------------------+
|  Inner_Iter|   Time_Iter|    rms[Rho]|   rms[RhoU]|   rms[RhoV]|   rms[RhoE]|          CL|          CD|
+-------------------------------------------------------------------------------------------------------+
|          21|           0|   -1.249199|    1.512856|    1.377823|    4.192498|    2.178117|    0.399447|
|          22|           0|   -1.234232|    1.510781|    1.392152|    4.203127|    1.952475|    0.314077|
|          23|           0|   -1.212669|    1.504495|    1.400742|    4.223698|    1.726196|    0.231034|
|          24|           0|   -1.186876|    1.494225|    1.404035|    4.251453|    1.500221|    0.150338|
|          25|           0|   -1.159797|    1.480849|    1.402422|    4.282427|    1.276072|    0.072288|
|          26|           0|   -1.134120|    1.465478|    1.396331|    4.312869|    1.055736|   -0.002608|
|          27|           0|   -1.111859|    1.449196|    1.386210|    4.339926|    0.841488|   -0.073721|
|          28|           0|   -1.094240|    1.432822|    1.373008|    4.361899|    0.635693|   -0.140376|
|          29|           0|   -1.081562|    1.416913|    1.357166|    4.378292|    0.440708|   -0.201893|
|          30|           0|   -1.073991|    1.401889|    1.339332|    4.388741|    0.258739|   -0.257649|
+-----------------------------------------------------------------------+
|        File Writing Summary       |              Filename             |
+-----------------------------------------------------------------------+
|SU2 restart                        |solution_flow.dat                  |
|Paraview                           |flow.vtu                           |
|Paraview surface                   |surface_flow.vtu                   |
+-----------------------------------------------------------------------+

Writing the forces breakdown file (forces_breakdown.dat).
+-------------------------------------------------------------------------------------------------------+
|  Inner_Iter|   Time_Iter|    rms[Rho]|   rms[RhoU]|   rms[RhoV]|   rms[RhoE]|          CL|          CD|
+-------------------------------------------------------------------------------------------------------+
|          31|           0|   -1.070566|    1.388016|    1.319801|    4.394116|    0.091812|   -0.307099|
|          32|           0|   -1.070216|    1.376168|    1.299406|    4.395393|   -0.058294|   -0.349802|
|          33|           0|   -1.071506|    1.367628|    1.278591|    4.394027|   -0.190072|   -0.385438|
|          34|           0|   -1.071905|    1.362833|    1.258410|    4.392448|   -0.302288|   -0.413785|
|          35|           0|   -1.069595|    1.362660|    1.239915|    4.392760|   -0.393995|   -0.434728|
|          36|           0|   -1.064133|    1.368182|    1.226525|    4.395901|   -0.464512|   -0.448253|
|          37|           0|   -1.055229|    1.380862|    1.221159|    4.402666|   -0.513417|   -0.454426|
|          38|           0|   -1.044162|    1.400733|    1.227981|    4.411942|   -0.540515|   -0.453381|
|          39|           0|   -1.032285|    1.426272|    1.248151|    4.422698|   -0.545803|   -0.445306|
|          40|           0|   -1.021560|    1.453992|    1.279552|    4.432739|   -0.529490|   -0.430442|
+-----------------------------------------------------------------------+
|        File Writing Summary       |              Filename             |
+-----------------------------------------------------------------------+
|SU2 restart                        |solution_flow.dat                  |
|Paraview                           |flow.vtu                           |
|Paraview surface                   |surface_flow.vtu                   |
+-----------------------------------------------------------------------+

Writing the forces breakdown file (forces_breakdown.dat).
+-------------------------------------------------------------------------------------------------------+
|  Inner_Iter|   Time_Iter|    rms[Rho]|   rms[RhoU]|   rms[RhoV]|   rms[RhoE]|          CL|          CD|
+-------------------------------------------------------------------------------------------------------+
|          41|           0|   -1.014153|    1.481472|    1.318958|    4.439606|   -0.492009|   -0.409082|
|          42|           0|   -1.011147|    1.507728|    1.361663|    4.442048|   -0.433992|   -0.381562|
|          43|           0|   -1.012686|    1.530750|    1.403070|    4.439488|   -0.356266|   -0.348260|
|          44|           0|   -1.018616|    1.548915|    1.440510|    4.431890|   -0.259861|   -0.309605|
|          45|           0|   -1.028868|    1.561988|    1.472239|    4.419296|   -0.146003|   -0.266067|
|          46|           0|   -1.040123|    1.568906|    1.497096|    4.404836|   -0.016135|   -0.218169|
|          47|           0|   -1.051396|    1.570158|    1.514888|    4.389966|    0.128081|   -0.166484|
|          48|           0|   -1.060162|    1.565143|    1.525793|    4.377650|    0.284800|   -0.111634|
|          49|           0|   -1.063303|    1.554172|    1.529903|    4.372047|    0.452036|   -0.054275|
|          50|           0|   -1.060186|    1.536463|    1.526980|    4.374259|    0.627647|    0.004892|
+-----------------------------------------------------------------------+
|        File Writing Summary       |              Filename             |
+-----------------------------------------------------------------------+
|SU2 restart                        |solution_flow.dat                  |
|Paraview                           |flow.vtu                           |
|Paraview surface                   |surface_flow.vtu                   |
+-----------------------------------------------------------------------+

Writing the forces breakdown file (forces_breakdown.dat).
+-------------------------------------------------------------------------------------------------------+
|  Inner_Iter|   Time_Iter|    rms[Rho]|   rms[RhoU]|   rms[RhoV]|   rms[RhoE]|          CL|          CD|
+-------------------------------------------------------------------------------------------------------+
|          51|           0|   -1.051906|    1.512697|    1.517752|    4.383666|    0.809370|    0.065136|
|          52|           0|   -1.039684|    1.483458|    1.502175|    4.398917|    0.994877|    0.125698|
|          53|           0|   -1.026119|    1.450832|    1.481750|    4.416576|    1.181803|    0.185818|
|          54|           0|   -1.013697|    1.417743|    1.457937|    4.433559|    1.367734|    0.244727|
|          55|           0|   -1.004180|    1.387622|    1.432549|    4.447497|    1.550303|    0.301669|
|          56|           0|   -0.998420|    1.364029|    1.408536|    4.457279|    1.727195|    0.355914|
|          57|           0|   -0.996503|    1.351953|    1.389622|    4.462663|    1.896213|    0.406778|
|          58|           0|   -1.000054|    1.351223|    1.379895|    4.461694|    2.055305|    0.453627|
|          59|           0|   -1.007881|    1.361190|    1.381495|    4.455593|    2.202577|    0.495891|
|          60|           0|   -1.019600|    1.378182|    1.393184|    4.444520|    2.336342|    0.533077|
+-----------------------------------------------------------------------+
|        File Writing Summary       |              Filename             |
+-----------------------------------------------------------------------+
|SU2 restart                        |solution_flow.dat                  |
|Paraview                           |flow.vtu                           |
|Paraview surface                   |surface_flow.vtu                   |
+-----------------------------------------------------------------------+

Writing the forces breakdown file (forces_breakdown.dat).
+-------------------------------------------------------------------------------------------------------+
|  Inner_Iter|   Time_Iter|    rms[Rho]|   rms[RhoU]|   rms[RhoV]|   rms[RhoE]|          CL|          CD|
+-------------------------------------------------------------------------------------------------------+
|          61|           0|   -1.034421|    1.399020|    1.411983|    4.428993|    2.455164|    0.564780|
|          62|           0|   -1.050762|    1.420647|    1.434469|    4.410253|    2.557870|    0.590690|
|          63|           0|   -1.067207|    1.440608|    1.457351|    4.389545|    2.643568|    0.610593|
|          64|           0|   -1.082583|    1.458495|    1.478640|    4.368095|    2.711653|    0.624380|
|          65|           0|   -1.097008|    1.473025|    1.496769|    4.346000|    2.761813|    0.632043|
|          66|           0|   -1.108388|    1.483298|    1.511090|    4.326079|    2.794021|    0.633669|
|          67|           0|   -1.115872|    1.489101|    1.521233|    4.309995|    2.808541|    0.629440|
|          68|           0|   -1.120555|    1.491045|    1.527181|    4.297704|    2.805899|    0.619630|
|          69|           0|   -1.123277|    1.489358|    1.528763|    4.289365|    2.786871|    0.604593|
|          70|           0|   -1.125056|    1.483588|    1.525905|    4.284368|    2.752465|    0.584758|
+-----------------------------------------------------------------------+
|        File Writing Summary       |              Filename             |
+-----------------------------------------------------------------------+
|SU2 restart                        |solution_flow.dat                  |
|Paraview                           |flow.vtu                           |
|Paraview surface                   |surface_flow.vtu                   |
+-----------------------------------------------------------------------+

Writing the forces breakdown file (forces_breakdown.dat).
+-------------------------------------------------------------------------------------------------------+
|  Inner_Iter|   Time_Iter|    rms[Rho]|   rms[RhoU]|   rms[RhoV]|   rms[RhoE]|          CL|          CD|
+-------------------------------------------------------------------------------------------------------+
|          71|           0|   -1.126018|    1.473615|    1.518792|    4.283037|    2.703880|    0.560614|
|          72|           0|   -1.127334|    1.460035|    1.507557|    4.283526|    2.642487|    0.532701|
|          73|           0|   -1.128648|    1.442584|    1.492421|    4.286033|    2.569789|    0.501599|
|          74|           0|   -1.130293|    1.421201|    1.473965|    4.289595|    2.487376|    0.467908|
|          75|           0|   -1.132886|    1.395889|    1.452436|    4.292925|    2.396921|    0.432244|
|          76|           0|   -1.136788|    1.367228|    1.428412|    4.295166|    2.300138|    0.395223|
|          77|           0|   -1.142259|    1.335739|    1.402399|    4.295640|    2.198749|    0.357452|
|          78|           0|   -1.149438|    1.303265|    1.376211|    4.293851|    2.094454|    0.319515|
|          79|           0|   -1.158967|    1.270826|    1.351331|    4.289043|    1.988887|    0.281964|
|          80|           0|   -1.170149|    1.240769|    1.328923|    4.281885|    1.883594|    0.245311|
+-----------------------------------------------------------------------+
|        File Writing Summary       |              Filename             |
+-----------------------------------------------------------------------+
|SU2 restart                        |solution_flow.dat                  |
|Paraview                           |flow.vtu                           |
|Paraview surface                   |surface_flow.vtu                   |
+-----------------------------------------------------------------------+

Writing the forces breakdown file (forces_breakdown.dat).
+-------------------------------------------------------------------------------------------------------+
|  Inner_Iter|   Time_Iter|    rms[Rho]|   rms[RhoU]|   rms[RhoV]|   rms[RhoE]|          CL|          CD|
+-------------------------------------------------------------------------------------------------------+
|          81|           0|   -1.183237|    1.216014|    1.310165|    4.272053|    1.780028|    0.210021|
|          82|           0|   -1.197862|    1.197676|    1.296020|    4.259634|    1.679529|    0.176510|
|          83|           0|   -1.213188|    1.187641|    1.286938|    4.245498|    1.583326|    0.145145|
|          84|           0|   -1.229107|    1.186751|    1.282495|    4.229752|    1.492497|    0.116233|
|          85|           0|   -1.245675|    1.193819|    1.281657|    4.212232|    1.407973|    0.090021|
|          86|           0|   -1.262474|    1.206937|    1.283176|    4.193338|    1.330547|    0.066702|
|          87|           0|   -1.279678|    1.223028|    1.285889|    4.172878|    1.260853|    0.046408|
|          88|           0|   -1.296835|    1.239386|    1.288930|    4.151300|    1.199379|    0.029218|
|          89|           0|   -1.313154|    1.255891|    1.291509|    4.129671|    1.146481|    0.015161|
|          90|           0|   -1.328230|    1.270694|    1.293230|    4.108774|    1.102380|    0.004217|
+-----------------------------------------------------------------------+
|        File Writing Summary       |              Filename             |
+-----------------------------------------------------------------------+
|SU2 restart                        |solution_flow.dat                  |
|Paraview                           |flow.vtu                           |
|Paraview surface                   |surface_flow.vtu                   |
+-----------------------------------------------------------------------+

Writing the forces breakdown file (forces_breakdown.dat).
+-------------------------------------------------------------------------------------------------------+
|  Inner_Iter|   Time_Iter|    rms[Rho]|   rms[RhoU]|   rms[RhoV]|   rms[RhoE]|          CL|          CD|
+-------------------------------------------------------------------------------------------------------+
|          91|           0|   -1.341779|    1.283196|    1.293590|    4.089059|    1.067181|   -0.003673|
|          92|           0|   -1.353500|    1.292878|    1.292457|    4.071053|    1.040872|   -0.008604|
|          93|           0|   -1.363381|    1.299982|    1.289828|    4.055241|    1.023341|   -0.010704|
|          94|           0|   -1.371658|    1.304979|    1.285769|    4.041844|    1.014369|   -0.010128|
|          95|           0|   -1.378933|    1.307218|    1.280440|    4.030373|    1.013657|   -0.007058|
|          96|           0|   -1.386234|    1.306687|    1.273805|    4.019876|    1.020817|   -0.001700|
|          97|           0|   -1.393911|    1.304285|    1.265862|    4.010072|    1.035427|    0.005740|
|          98|           0|   -1.402207|    1.300079|    1.256990|    4.000595|    1.056984|    0.015038|
|          99|           0|   -1.411260|    1.293687|    1.246817|    3.991278|    1.084966|    0.025969|
|         100|           0|   -1.421342|    1.285473|    1.235500|    3.981855|    1.118831|    0.038310|
+-----------------------------------------------------------------------+
|        File Writing Summary       |              Filename             |
+-----------------------------------------------------------------------+
|SU2 restart                        |solution_flow.dat                  |
|Paraview                           |flow.vtu                           |
|Paraview surface                   |surface_flow.vtu                   |
+-----------------------------------------------------------------------+

Writing the forces breakdown file (forces_breakdown.dat).
+-------------------------------------------------------------------------------------------------------+
|  Inner_Iter|   Time_Iter|    rms[Rho]|   rms[RhoU]|   rms[RhoV]|   rms[RhoE]|          CL|          CD|
+-------------------------------------------------------------------------------------------------------+
|         101|           0|   -1.432196|    1.275281|    1.223216|    3.972622|    1.157965|    0.051828|
|         102|           0|   -1.443066|    1.262930|    1.210206|    3.964475|    1.201755|    0.066299|
|         103|           0|   -1.453987|    1.248800|    1.196810|    3.957241|    1.249548|    0.081498|
|         104|           0|   -1.465559|    1.233450|    1.183056|    3.950019|    1.300686|    0.097207|
|         105|           0|   -1.477005|    1.216203|    1.168969|    3.943555|    1.354503|    0.113217|
|         106|           0|   -1.488307|    1.197067|    1.154667|    3.937762|    1.410328|    0.129326|
|         107|           0|   -1.499509|    1.176962|    1.140218|    3.932251|    1.467504|    0.145345|
|         108|           0|   -1.510727|    1.156551|    1.125836|    3.926799|    1.525371|    0.161095|
|         109|           0|   -1.521829|    1.136409|    1.111590|    3.921369|    1.583289|    0.176408|
|         110|           0|   -1.533011|    1.117232|    1.097769|    3.915468|    1.640650|    0.191132|
+-----------------------------------------------------------------------+
|        File Writing Summary       |              Filename             |
+-----------------------------------------------------------------------+
|SU2 restart                        |solution_flow.dat                  |
|Paraview                           |flow.vtu                           |
|Paraview surface                   |surface_flow.vtu                   |
+-----------------------------------------------------------------------+

Writing the forces breakdown file (forces_breakdown.dat).
+-------------------------------------------------------------------------------------------------------+
|  Inner_Iter|   Time_Iter|    rms[Rho]|   rms[RhoU]|   rms[RhoV]|   rms[RhoE]|          CL|          CD|
+-------------------------------------------------------------------------------------------------------+
|         111|           0|   -1.543927|    1.099814|    1.084685|    3.909197|    1.696861|    0.205129|
|         112|           0|   -1.555167|    1.084666|    1.072922|    3.901847|    1.751360|    0.218273|
|         113|           0|   -1.565704|    1.072575|    1.062867|    3.894364|    1.803611|    0.230453|
|         114|           0|   -1.575219|    1.064048|    1.054804|    3.886932|    1.853121|    0.241574|
|         115|           0|   -1.583981|    1.059467|    1.049018|    3.879148|    1.899432|    0.251552|
|         116|           0|   -1.591920|    1.058791|    1.045583|    3.871066|    1.942143|    0.260326|
|         117|           0|   -1.598869|    1.061430|    1.044338|    3.862823|    1.980902|    0.267850|
|         118|           0|   -1.605188|    1.067078|    1.045160|    3.854046|    2.015406|    0.274088|
|         119|           0|   -1.610714|    1.075309|    1.047637|    3.845095|    2.045388|    0.279018|
|         120|           0|   -1.615972|    1.085104|    1.051343|    3.835558|    2.070655|    0.282634|
+-----------------------------------------------------------------------+
|        File Writing Summary       |              Filename             |
+-----------------------------------------------------------------------+
|SU2 restart                        |solution_flow.dat                  |
|Paraview                           |flow.vtu                           |
|Paraview surface                   |surface_flow.vtu                   |
+-----------------------------------------------------------------------+

Writing the forces breakdown file (forces_breakdown.dat).
+-------------------------------------------------------------------------------------------------------+
|  Inner_Iter|   Time_Iter|    rms[Rho]|   rms[RhoU]|   rms[RhoV]|   rms[RhoE]|          CL|          CD|
+-------------------------------------------------------------------------------------------------------+
|         121|           0|   -1.620705|    1.095408|    1.055854|    3.825766|    2.091062|    0.284944|
|         122|           0|   -1.625798|    1.105381|    1.060666|    3.815025|    2.106507|    0.285965|
|         123|           0|   -1.631083|    1.114819|    1.065365|    3.803782|    2.116946|    0.285728|
|         124|           0|   -1.636510|    1.123371|    1.069523|    3.792392|    2.122393|    0.284275|
|         125|           0|   -1.642378|    1.130739|    1.072677|    3.780846|    2.122916|    0.281659|
|         126|           0|   -1.647878|    1.135172|    1.074502|    3.769750|    2.118648|    0.277949|
|         127|           0|   -1.652930|    1.137460|    1.074657|    3.759787|    2.109798|    0.273230|
|         128|           0|   -1.657350|    1.137261|    1.072722|    3.751392|    2.096597|    0.267588|
|         129|           0|   -1.660737|    1.134844|    1.068442|    3.745508|    2.079326|    0.261122|
|         130|           0|   -1.663138|    1.129902|    1.061459|    3.742277|    2.058319|    0.253935|
+-----------------------------------------------------------------------+
|        File Writing Summary       |              Filename             |
+-----------------------------------------------------------------------+
|SU2 restart                        |solution_flow.dat                  |
|Paraview                           |flow.vtu                           |
|Paraview surface                   |surface_flow.vtu                   |
+-----------------------------------------------------------------------+

Writing the forces breakdown file (forces_breakdown.dat).
+-------------------------------------------------------------------------------------------------------+
|  Inner_Iter|   Time_Iter|    rms[Rho]|   rms[RhoU]|   rms[RhoV]|   rms[RhoE]|          CL|          CD|
+-------------------------------------------------------------------------------------------------------+
|         131|           0|   -1.664236|    1.122317|    1.051688|    3.742095|    2.033945|    0.246138|
|         132|           0|   -1.664333|    1.112249|    1.039032|    3.744554|    2.006599|    0.237847|
|         133|           0|   -1.663508|    1.099801|    1.023238|    3.749381|    1.976702|    0.229178|
|         134|           0|   -1.662277|    1.085081|    1.004204|    3.755657|    1.944693|    0.220250|
|         135|           0|   -1.660541|    1.069020|    0.982178|    3.763388|    1.911030|    0.211182|
|         136|           0|   -1.659063|    1.050919|    0.956710|    3.771073|    1.876176|    0.202092|
|         137|           0|   -1.658089|    1.030834|    0.928042|    3.778311|    1.840603|    0.193095|
|         138|           0|   -1.657575|    1.009587|    0.896590|    3.785018|    1.804782|    0.184299|
|         139|           0|   -1.657411|    0.988297|    0.863017|    3.791141|    1.769174|    0.175808|
|         140|           0|   -1.658407|    0.967800|    0.828422|    3.795630|    1.734234|    0.167721|
+-----------------------------------------------------------------------+
|        File Writing Summary       |              Filename             |
+-----------------------------------------------------------------------+
|SU2 restart                        |solution_flow.dat                  |
|Paraview                           |flow.vtu                           |
|Paraview surface                   |surface_flow.vtu                   |
+-----------------------------------------------------------------------+

Writing the forces breakdown file (forces_breakdown.dat).
+-------------------------------------------------------------------------------------------------------+
|  Inner_Iter|   Time_Iter|    rms[Rho]|   rms[RhoU]|   rms[RhoV]|   rms[RhoE]|          CL|          CD|
+-------------------------------------------------------------------------------------------------------+
|         141|           0|   -1.660851|    0.949177|    0.794531|    3.797815|    1.700378|    0.160121|
|         142|           0|   -1.664531|    0.934032|    0.763793|    3.797986|    1.668007|    0.153090|
|         143|           0|   -1.669185|    0.923276|    0.739233|    3.796374|    1.637494|    0.146693|
|         144|           0|   -1.675453|    0.917515|    0.723784|    3.792272|    1.609176|    0.140990|
|         145|           0|   -1.682616|    0.916709|    0.719223|    3.786361|    1.583370|    0.136030|
|         146|           0|   -1.690773|    0.919945|    0.725230|    3.778219|    1.560346|    0.131848|
|         147|           0|   -1.699672|    0.926703|    0.739743|    3.768194|    1.540343|    0.128472|
|         148|           0|   -1.708946|    0.936155|    0.759779|    3.756592|    1.523553|    0.125913|
|         149|           0|   -1.718264|    0.946901|    0.782493|    3.743549|    1.510103|    0.124167|
|         150|           0|   -1.727337|    0.957739|    0.805682|    3.729256|    1.500065|    0.123216|
+-----------------------------------------------------------------------+
|        File Writing Summary       |              Filename             |
+-----------------------------------------------------------------------+
|SU2 restart                        |solution_flow.dat                  |
|Paraview                           |flow.vtu                           |
|Paraview surface                   |surface_flow.vtu                   |
+-----------------------------------------------------------------------+

Writing the forces breakdown file (forces_breakdown.dat).
+-------------------------------------------------------------------------------------------------------+
|  Inner_Iter|   Time_Iter|    rms[Rho]|   rms[RhoU]|   rms[RhoV]|   rms[RhoE]|          CL|          CD|
+-------------------------------------------------------------------------------------------------------+
|         151|           0|   -1.735580|    0.968294|    0.827823|    3.714401|    1.493483|    0.123037|
|         152|           0|   -1.742522|    0.977900|    0.847818|    3.699630|    1.490356|    0.123596|
|         153|           0|   -1.747443|    0.986240|    0.865198|    3.686095|    1.490620|    0.124846|
|         154|           0|   -1.750528|    0.992868|    0.879564|    3.674123|    1.494200|    0.126738|
|         155|           0|   -1.751798|    0.997340|    0.890776|    3.664296|    1.500971|    0.129216|
|         156|           0|   -1.751452|    0.999724|    0.898766|    3.657111|    1.510774|    0.132218|
|         157|           0|   -1.749776|    1.000062|    0.903569|    3.652786|    1.523412|    0.135676|
|         158|           0|   -1.747555|    0.997896|    0.905317|    3.650675|    1.538661|    0.139519|
|         159|           0|   -1.745285|    0.993231|    0.904085|    3.650443|    1.556270|    0.143674|
|         160|           0|   -1.742817|    0.986334|    0.899908|    3.652396|    1.575979|    0.148068|
+-----------------------------------------------------------------------+
|        File Writing Summary       |              Filename             |
+-----------------------------------------------------------------------+
|SU2 restart                        |solution_flow.dat                  |
|Paraview                           |flow.vtu                           |
|Paraview surface                   |surface_flow.vtu                   |
+-----------------------------------------------------------------------+

Writing the forces breakdown file (forces_breakdown.dat).
+-------------------------------------------------------------------------------------------------------+
|  Inner_Iter|   Time_Iter|    rms[Rho]|   rms[RhoU]|   rms[RhoV]|   rms[RhoE]|          CL|          CD|
+-------------------------------------------------------------------------------------------------------+
|         161|           0|   -1.740696|    0.977176|    0.892727|    3.655675|    1.597498|    0.152627|
|         162|           0|   -1.739386|    0.965947|    0.882530|    3.659456|    1.620531|    0.157277|
|         163|           0|   -1.738812|    0.952627|    0.869544|    3.663646|    1.644764|    0.161946|
|         164|           0|   -1.739154|    0.936904|    0.854208|    3.667812|    1.669886|    0.166568|
|         165|           0|   -1.740803|    0.919145|    0.836334|    3.671287|    1.695570|    0.171078|
|         166|           0|   -1.743808|    0.899416|    0.816013|    3.673781|    1.721500|    0.175415|
|         167|           0|   -1.748046|    0.878169|    0.793404|    3.675210|    1.747351|    0.179520|
|         168|           0|   -1.753346|    0.855698|    0.768778|    3.675695|    1.772823|    0.183341|
|         169|           0|   -1.759564|    0.832728|    0.742757|    3.675269|    1.797611|    0.186832|
|         170|           0|   -1.766526|    0.809874|    0.716169|    3.673904|    1.821440|    0.189954|
+-----------------------------------------------------------------------+
|        File Writing Summary       |              Filename             |
+-----------------------------------------------------------------------+
|SU2 restart                        |solution_flow.dat                  |
|Paraview                           |flow.vtu                           |
|Paraview surface                   |surface_flow.vtu                   |
+-----------------------------------------------------------------------+

Writing the forces breakdown file (forces_breakdown.dat).
+-------------------------------------------------------------------------------------------------------+
|  Inner_Iter|   Time_Iter|    rms[Rho]|   rms[RhoU]|   rms[RhoV]|   rms[RhoE]|          CL|          CD|
+-------------------------------------------------------------------------------------------------------+
|         171|           0|   -1.774047|    0.787867|    0.690086|    3.671660|    1.844050|    0.192675|
|         172|           0|   -1.781932|    0.767866|    0.665755|    3.668583|    1.865215|    0.194974|
|         173|           0|   -1.789915|    0.751412|    0.644663|    3.664761|    1.884706|    0.196827|
|         174|           0|   -1.798021|    0.739560|    0.628467|    3.659975|    1.902322|    0.198219|
|         175|           0|   -1.806342|    0.733119|    0.618524|    3.653977|    1.917891|    0.199142|
|         176|           0|   -1.814852|    0.732181|    0.615450|    3.646605|    1.931259|    0.199592|
|         177|           0|   -1.823133|    0.736319|    0.619140|    3.638246|    1.942305|    0.199572|
|         178|           0|   -1.830870|    0.744767|    0.628499|    3.629203|    1.950951|    0.199093|
|         179|           0|   -1.838213|    0.756179|    0.641949|    3.619248|    1.957152|    0.198175|
|         180|           0|   -1.844686|    0.769610|    0.657880|    3.608967|    1.960891|    0.196842|
+-----------------------------------------------------------------------+
|        File Writing Summary       |              Filename             |
+-----------------------------------------------------------------------+
|SU2 restart                        |solution_flow.dat                  |
|Paraview                           |flow.vtu                           |
|Paraview surface                   |surface_flow.vtu                   |
+-----------------------------------------------------------------------+

Writing the forces breakdown file (forces_breakdown.dat).
+-------------------------------------------------------------------------------------------------------+
|  Inner_Iter|   Time_Iter|    rms[Rho]|   rms[RhoU]|   rms[RhoV]|   rms[RhoE]|          CL|          CD|
+-------------------------------------------------------------------------------------------------------+
|         181|           0|   -1.850601|    0.783375|    0.674848|    3.598088|    1.962187|    0.195122|
|         182|           0|   -1.855933|    0.796964|    0.691635|    3.586861|    1.961084|    0.193049|
|         183|           0|   -1.860754|    0.809506|    0.707437|    3.575327|    1.957663|    0.190661|
|         184|           0|   -1.865721|    0.820302|    0.721661|    3.562978|    1.952021|    0.187998|
|         185|           0|   -1.870228|    0.829440|    0.733668|    3.550906|    1.944280|    0.185102|
|         186|           0|   -1.873853|    0.836318|    0.743272|    3.539881|    1.934596|    0.182019|
|         187|           0|   -1.876641|    0.840891|    0.750234|    3.530425|    1.923149|    0.178800|
|         188|           0|   -1.878757|    0.843015|    0.754516|    3.522745|    1.910119|    0.175489|
|         189|           0|   -1.880392|    0.842393|    0.755899|    3.516901|    1.895714|    0.172136|
|         190|           0|   -1.881442|    0.839028|    0.754444|    3.513270|    1.880149|    0.168785|
+-----------------------------------------------------------------------+
|        File Writing Summary       |              Filename             |
+-----------------------------------------------------------------------+
|SU2 restart                        |solution_flow.dat                  |
|Paraview                           |flow.vtu                           |
|Paraview surface                   |surface_flow.vtu                   |
+-----------------------------------------------------------------------+

Writing the forces breakdown file (forces_breakdown.dat).
+-------------------------------------------------------------------------------------------------------+
|  Inner_Iter|   Time_Iter|    rms[Rho]|   rms[RhoU]|   rms[RhoV]|   rms[RhoE]|          CL|          CD|
+-------------------------------------------------------------------------------------------------------+
|         191|           0|   -1.882235|    0.832772|    0.750042|    3.511553|    1.863655|    0.165485|
|         192|           0|   -1.883072|    0.823913|    0.742761|    3.511466|    1.846454|    0.162280|
|         193|           0|   -1.884072|    0.812332|    0.732294|    3.512684|    1.828794|    0.159215|
|         194|           0|   -1.885395|    0.797916|    0.718858|    3.514833|    1.810903|    0.156329|
|         195|           0|   -1.887240|    0.780571|    0.702448|    3.517427|    1.793014|    0.153658|
|         196|           0|   -1.889904|    0.760382|    0.683139|    3.519932|    1.775354|    0.151236|
|         197|           0|   -1.892813|    0.737511|    0.661051|    3.522871|    1.758134|    0.149088|
|         198|           0|   -1.896293|    0.712285|    0.636363|    3.525576|    1.741548|    0.147233|
|         199|           0|   -1.900419|    0.685011|    0.609527|    3.527752|    1.725783|    0.145689|
|         200|           0|   -1.905350|    0.656141|    0.581176|    3.528930|    1.711010|    0.144468|
+-----------------------------------------------------------------------+
|        File Writing Summary       |              Filename             |
+-----------------------------------------------------------------------+
|SU2 restart                        |solution_flow.dat                  |
|Paraview                           |flow.vtu                           |
|Paraview surface                   |surface_flow.vtu                   |
+-----------------------------------------------------------------------+

Writing the forces breakdown file (forces_breakdown.dat).
+-------------------------------------------------------------------------------------------------------+
|  Inner_Iter|   Time_Iter|    rms[Rho]|   rms[RhoU]|   rms[RhoV]|   rms[RhoE]|          CL|          CD|
+-------------------------------------------------------------------------------------------------------+
|         201|           0|   -1.910983|    0.626423|    0.552348|    3.529076|    1.697378|    0.143577|
|         202|           0|   -1.917232|    0.596791|    0.524517|    3.528086|    1.685033|    0.143023|
|         203|           0|   -1.924010|    0.569372|    0.499352|    3.525979|    1.674101|    0.142804|
|         204|           0|   -1.931654|    0.546048|    0.478938|    3.522228|    1.664698|    0.142918|
|         205|           0|   -1.939867|    0.528756|    0.465251|    3.517047|    1.656904|    0.143354|
|         206|           0|   -1.948565|    0.518878|    0.459678|    3.510434|    1.650801|    0.144105|
|         207|           0|   -1.957241|    0.516799|    0.462371|    3.502778|    1.646428|    0.145152|
|         208|           0|   -1.965798|    0.522086|    0.472108|    3.494052|    1.643816|    0.146478|
|         209|           0|   -1.974419|    0.533111|    0.487004|    3.483953|    1.642966|    0.148061|
|         210|           0|   -1.982782|    0.548189|    0.505007|    3.472817|    1.643872|    0.149875|
+-----------------------------------------------------------------------+
|        File Writing Summary       |              Filename             |
+-----------------------------------------------------------------------+
|SU2 restart                        |solution_flow.dat                  |
|Paraview                           |flow.vtu                           |
|Paraview surface                   |surface_flow.vtu                   |
+-----------------------------------------------------------------------+

Writing the forces breakdown file (forces_breakdown.dat).
+-------------------------------------------------------------------------------------------------------+
|  Inner_Iter|   Time_Iter|    rms[Rho]|   rms[RhoU]|   rms[RhoV]|   rms[RhoE]|          CL|          CD|
+-------------------------------------------------------------------------------------------------------+
|         211|           0|   -1.990720|    0.565231|    0.524162|    3.460888|    1.646497|    0.151892|
|         212|           0|   -1.998613|    0.581626|    0.542870|    3.447752|    1.650797|    0.154085|
|         213|           0|   -2.005264|    0.597447|    0.560223|    3.434866|    1.656697|    0.156421|
|         214|           0|   -2.010525|    0.611922|    0.575583|    3.422683|    1.664113|    0.158868|
|         215|           0|   -2.014440|    0.624450|    0.588539|    3.411591|    1.672938|    0.161390|
|         216|           0|   -2.017168|    0.634757|    0.598845|    3.401784|    1.683056|    0.163954|
|         217|           0|   -2.018973|    0.642672|    0.606392|    3.393391|    1.694335|    0.166524|
|         218|           0|   -2.020192|    0.648235|    0.611137|    3.386489|    1.706635|    0.169068|
|         219|           0|   -2.020899|    0.651278|    0.613011|    3.381311|    1.719797|    0.171551|
|         220|           0|   -2.021406|    0.651585|    0.612172|    3.377732|    1.733663|    0.173941|
+-----------------------------------------------------------------------+
|        File Writing Summary       |              Filename             |
+-----------------------------------------------------------------------+
|SU2 restart                        |solution_flow.dat                  |
|Paraview                           |flow.vtu                           |
|Paraview surface                   |surface_flow.vtu                   |
+-----------------------------------------------------------------------+

Writing the forces breakdown file (forces_breakdown.dat).
+-------------------------------------------------------------------------------------------------------+
|  Inner_Iter|   Time_Iter|    rms[Rho]|   rms[RhoU]|   rms[RhoV]|   rms[RhoE]|          CL|          CD|
+-------------------------------------------------------------------------------------------------------+
|         221|           0|   -2.022052|    0.649236|    0.608586|    3.375431|    1.748064|    0.176206|
|         222|           0|   -2.022794|    0.644107|    0.602238|    3.374472|    1.762828|    0.178318|
|         223|           0|   -2.023564|    0.636181|    0.593084|    3.374969|    1.777780|    0.180249|
|         224|           0|   -2.024579|    0.625466|    0.580964|    3.376585|    1.792747|    0.181976|
|         225|           0|   -2.026195|    0.612223|    0.566113|    3.378654|    1.807554|    0.183477|
|         226|           0|   -2.028625|    0.596675|    0.548650|    3.380705|    1.822032|    0.184734|
|         227|           0|   -2.031991|    0.578957|    0.528687|    3.382386|    1.836015|    0.185731|
|         228|           0|   -2.036273|    0.559260|    0.506425|    3.383488|    1.849357|    0.186457|
|         229|           0|   -2.041534|    0.538035|    0.482234|    3.383793|    1.861909|    0.186905|
|         230|           0|   -2.047778|    0.515895|    0.456452|    3.383142|    1.873537|    0.187070|
+-----------------------------------------------------------------------+
|        File Writing Summary       |              Filename             |
+-----------------------------------------------------------------------+
|SU2 restart                        |solution_flow.dat                  |
|Paraview                           |flow.vtu                           |
|Paraview surface                   |surface_flow.vtu                   |
+-----------------------------------------------------------------------+

Writing the forces breakdown file (forces_breakdown.dat).
+-------------------------------------------------------------------------------------------------------+
|  Inner_Iter|   Time_Iter|    rms[Rho]|   rms[RhoU]|   rms[RhoV]|   rms[RhoE]|          CL|          CD|
+-------------------------------------------------------------------------------------------------------+
|         231|           0|   -2.054976|    0.493663|    0.429805|    3.381392|    1.884116|    0.186949|
|         232|           0|   -2.063135|    0.472439|    0.403309|    3.378400|    1.893540|    0.186547|
|         233|           0|   -2.072039|    0.453116|    0.378365|    3.374253|    1.901716|    0.185868|
|         234|           0|   -2.081765|    0.436901|    0.356504|    3.368678|    1.908566|    0.184922|
|         235|           0|   -2.092196|    0.424916|    0.339297|    3.361733|    1.914033|    0.183721|
|         236|           0|   -2.102815|    0.417984|    0.327949|    3.353803|    1.918074|    0.182282|
|         237|           0|   -2.113635|    0.416444|    0.323170|    3.344729|    1.920675|    0.180625|
|         238|           0|   -2.124308|    0.420026|    0.324848|    3.334712|    1.921830|    0.178771|
|         239|           0|   -2.134502|    0.428047|    0.332150|    3.324043|    1.921554|    0.176745|
|         240|           0|   -2.144522|    0.439382|    0.343661|    3.312344|    1.919877|    0.174571|
+-----------------------------------------------------------------------+
|        File Writing Summary       |              Filename             |
+-----------------------------------------------------------------------+
|SU2 restart                        |solution_flow.dat                  |
|Paraview                           |flow.vtu                           |
|Paraview surface                   |surface_flow.vtu                   |
+-----------------------------------------------------------------------+

Writing the forces breakdown file (forces_breakdown.dat).
+-------------------------------------------------------------------------------------------------------+
|  Inner_Iter|   Time_Iter|    rms[Rho]|   rms[RhoU]|   rms[RhoV]|   rms[RhoE]|          CL|          CD|
+-------------------------------------------------------------------------------------------------------+
|         241|           0|   -2.154069|    0.452552|    0.357769|    3.299846|    1.916853|    0.172279|
|         242|           0|   -2.162973|    0.466276|    0.373060|    3.286773|    1.912543|    0.169896|
|         243|           0|   -2.170956|    0.479670|    0.388350|    3.273503|    1.907029|    0.167452|
|         244|           0|   -2.178372|    0.491905|    0.402769|    3.259753|    1.900400|    0.164977|
|         245|           0|   -2.184419|    0.502814|    0.415701|    3.246677|    1.892760|    0.162502|
|         246|           0|   -2.189101|    0.511884|    0.426715|    3.234604|    1.884221|    0.160054|
|         247|           0|   -2.192551|    0.518891|    0.435505|    3.223825|    1.874909|    0.157664|
|         248|           0|   -2.195080|    0.523576|    0.441886|    3.214415|    1.864955|    0.155360|
|         249|           0|   -2.196736|    0.525891|    0.445658|    3.206769|    1.854495|    0.153170|
|         250|           0|   -2.197901|    0.525926|    0.446775|    3.200816|    1.843668|    0.151118|
+-----------------------------------------------------------------------+
|        File Writing Summary       |              Filename             |
+-----------------------------------------------------------------------+
|SU2 restart                        |solution_flow.dat                  |
|Paraview                           |flow.vtu                           |
|Paraview surface                   |surface_flow.vtu                   |
+-----------------------------------------------------------------------+

Writing the forces breakdown file (forces_breakdown.dat).
+-------------------------------------------------------------------------------------------------------+
|  Inner_Iter|   Time_Iter|    rms[Rho]|   rms[RhoU]|   rms[RhoV]|   rms[RhoE]|          CL|          CD|
+-------------------------------------------------------------------------------------------------------+
|         251|           0|   -2.199153|    0.523584|    0.445173|    3.196188|    1.832617|    0.149228|
|         252|           0|   -2.200529|    0.518757|    0.440909|    3.192980|    1.821480|    0.147520|
|         253|           0|   -2.201548|    0.511383|    0.433940|    3.191689|    1.810398|    0.146014|
|         254|           0|   -2.202570|    0.501468|    0.424270|    3.191826|    1.799509|    0.144724|
|         255|           0|   -2.203987|    0.489005|    0.411902|    3.192783|    1.788944|    0.143665|
|         256|           0|   -2.205898|    0.474095|    0.396876|    3.194330|    1.778828|    0.142847|
|         257|           0|   -2.208403|    0.456749|    0.379238|    3.196167|    1.769281|    0.142277|
|         258|           0|   -2.211483|    0.437074|    0.359163|    3.198107|    1.760412|    0.141958|
|         259|           0|   -2.215367|    0.415305|    0.336692|    3.199677|    1.752323|    0.141895|
|         260|           0|   -2.220159|    0.391656|    0.312100|    3.200553|    1.745104|    0.142084|
+-----------------------------------------------------------------------+
|        File Writing Summary       |              Filename             |
+-----------------------------------------------------------------------+
|SU2 restart                        |solution_flow.dat                  |
|Paraview                           |flow.vtu                           |
|Paraview surface                   |surface_flow.vtu                   |
+-----------------------------------------------------------------------+

Writing the forces breakdown file (forces_breakdown.dat).
+-------------------------------------------------------------------------------------------------------+
|  Inner_Iter|   Time_Iter|    rms[Rho]|   rms[RhoU]|   rms[RhoV]|   rms[RhoE]|          CL|          CD|
+-------------------------------------------------------------------------------------------------------+
|         261|           0|   -2.225867|    0.366551|    0.285865|    3.200580|    1.738830|    0.142522|
|         262|           0|   -2.232486|    0.340496|    0.258555|    3.199611|    1.733569|    0.143201|
|         263|           0|   -2.239882|    0.314168|    0.231118|    3.197633|    1.729373|    0.144112|
|         264|           0|   -2.248048|    0.288622|    0.204776|    3.194508|    1.726280|    0.145242|
|         265|           0|   -2.256844|    0.265054|    0.181144|    3.190243|    1.724314|    0.146576|
|         266|           0|   -2.266243|    0.244791|    0.161872|    3.184725|    1.723488|    0.148099|
|         267|           0|   -2.276048|    0.229032|    0.148411|    3.178033|    1.723799|    0.149789|
|         268|           0|   -2.286631|    0.217945|    0.141697|    3.169583|    1.725231|    0.151625|
|         269|           0|   -2.296976|    0.212430|    0.141802|    3.160319|    1.727763|    0.153588|
|         270|           0|   -2.306798|    0.212503|    0.147928|    3.150441|    1.731355|    0.155655|
+-----------------------------------------------------------------------+
|        File Writing Summary       |              Filename             |
+-----------------------------------------------------------------------+
|SU2 restart                        |solution_flow.dat                  |
|Paraview                           |flow.vtu                           |
|Paraview surface                   |surface_flow.vtu                   |
+-----------------------------------------------------------------------+

Writing the forces breakdown file (forces_breakdown.dat).
+-------------------------------------------------------------------------------------------------------+
|  Inner_Iter|   Time_Iter|    rms[Rho]|   rms[RhoU]|   rms[RhoV]|   rms[RhoE]|          CL|          CD|
+-------------------------------------------------------------------------------------------------------+
|         271|           0|   -2.316156|    0.217103|    0.158580|    3.139810|    1.735959|    0.157802|
|         272|           0|   -2.324638|    0.225511|    0.172335|    3.128885|    1.741508|    0.160003|
|         273|           0|   -2.332083|    0.236387|    0.187670|    3.117838|    1.747935|    0.162234|
|         274|           0|   -2.338386|    0.248629|    0.203338|    3.106938|    1.755155|    0.164470|
|         275|           0|   -2.343416|    0.261124|    0.218337|    3.096572|    1.763083|    0.166684|
|         276|           0|   -2.347391|    0.272920|    0.232055|    3.086719|    1.771619|    0.168853|
|         277|           0|   -2.350423|    0.283109|    0.243883|    3.077536|    1.780664|    0.170952|
|         278|           0|   -2.352709|    0.291565|    0.253555|    3.069177|    1.790111|    0.172959|
|         279|           0|   -2.354184|    0.298136|    0.260978|    3.062045|    1.799852|    0.174852|
|         280|           0|   -2.355041|    0.302655|    0.265977|    3.056259|    1.809772|    0.176609|
+-----------------------------------------------------------------------+
|        File Writing Summary       |              Filename             |
+-----------------------------------------------------------------------+
|SU2 restart                        |solution_flow.dat                  |
|Paraview                           |flow.vtu                           |
|Paraview surface                   |surface_flow.vtu                   |
+-----------------------------------------------------------------------+

Writing the forces breakdown file (forces_breakdown.dat).
+-------------------------------------------------------------------------------------------------------+
|  Inner_Iter|   Time_Iter|    rms[Rho]|   rms[RhoU]|   rms[RhoV]|   rms[RhoE]|          CL|          CD|
+-------------------------------------------------------------------------------------------------------+
|         281|           0|   -2.355576|    0.305025|    0.268566|    3.051733|    1.819764|    0.178213|
|         282|           0|   -2.356034|    0.305105|    0.268732|    3.048353|    1.829712|    0.179646|
|         283|           0|   -2.356579|    0.302944|    0.266479|    3.046043|    1.839512|    0.180894|
|         284|           0|   -2.357409|    0.298568|    0.261832|    3.044605|    1.849056|    0.181943|
|         285|           0|   -2.358675|    0.291921|    0.254877|    3.043830|    1.858245|    0.182785|
|         286|           0|   -2.360620|    0.283141|    0.245684|    3.043338|    1.866983|    0.183410|
|         287|           0|   -2.363317|    0.272290|    0.234289|    3.042957|    1.875185|    0.183815|
|         288|           0|   -2.366922|    0.259506|    0.220869|    3.042454|    1.882766|    0.183995|
|         289|           0|   -2.371416|    0.245026|    0.205551|    3.041729|    1.889658|    0.183952|
|         290|           0|   -2.376879|    0.229209|    0.188654|    3.040502|    1.895791|    0.183685|
+-----------------------------------------------------------------------+
|        File Writing Summary       |              Filename             |
+-----------------------------------------------------------------------+
|SU2 restart                        |solution_flow.dat                  |
|Paraview                           |flow.vtu                           |
|Paraview surface                   |surface_flow.vtu                   |
+-----------------------------------------------------------------------+

Writing the forces breakdown file (forces_breakdown.dat).
+-------------------------------------------------------------------------------------------------------+
|  Inner_Iter|   Time_Iter|    rms[Rho]|   rms[RhoU]|   rms[RhoV]|   rms[RhoE]|          CL|          CD|
+-------------------------------------------------------------------------------------------------------+
|         291|           0|   -2.383275|    0.212443|    0.170536|    3.038672|    1.901113|    0.183202|
|         292|           0|   -2.390657|    0.195135|    0.151560|    3.036045|    1.905582|    0.182509|
|         293|           0|   -2.398955|    0.177856|    0.132312|    3.032557|    1.909167|    0.181616|
|         294|           0|   -2.408075|    0.161263|    0.113496|    3.028176|    1.911845|    0.180534|
|         295|           0|   -2.418070|    0.146180|    0.095929|    3.022705|    1.913608|    0.179278|
|         296|           0|   -2.428800|    0.133266|    0.080428|    3.016176|    1.914455|    0.177863|
|         297|           0|   -2.440029|    0.123167|    0.067751|    3.008678|    1.914401|    0.176309|
|         298|           0|   -2.451519|    0.116281|    0.058521|    3.000313|    1.913463|    0.174631|
|         299|           0|   -2.463201|    0.112791|    0.053042|    2.990997|    1.911676|    0.172852|
|         300|           0|   -2.475127|    0.112391|    0.051350|    2.980433|    1.909080|    0.170991|
+-----------------------------------------------------------------------+
|        File Writing Summary       |              Filename             |
+-----------------------------------------------------------------------+
|SU2 restart                        |solution_flow.dat                  |
|Paraview                           |flow.vtu                           |
|Paraview surface                   |surface_flow.vtu                   |
+-----------------------------------------------------------------------+

Writing the forces breakdown file (forces_breakdown.dat).
+-------------------------------------------------------------------------------------------------------+
|  Inner_Iter|   Time_Iter|    rms[Rho]|   rms[RhoU]|   rms[RhoV]|   rms[RhoE]|          CL|          CD|
+-------------------------------------------------------------------------------------------------------+
|         301|           0|   -2.486760|    0.115069|    0.053084|    2.969212|    1.905724|    0.169071|
|         302|           0|   -2.497970|    0.120224|    0.057623|    2.957344|    1.901666|    0.167114|
|         303|           0|   -2.508493|    0.127175|    0.064225|    2.945049|    1.896975|    0.165142|
|         304|           0|   -2.518264|    0.135225|    0.072098|    2.932392|    1.891720|    0.163178|
|         305|           0|   -2.526917|    0.143749|    0.080498|    2.919833|    1.885980|    0.161244|
|         306|           0|   -2.534433|    0.152126|    0.088775|    2.907470|    1.879834|    0.159362|
|         307|           0|   -2.540977|    0.159845|    0.096388|    2.895310|    1.873370|    0.157551|
|         308|           0|   -2.546522|    0.166483|    0.102937|    2.883602|    1.866671|    0.155832|
|         309|           0|   -2.551011|    0.171837|    0.108165|    2.872773|    1.859831|    0.154224|
|         310|           0|   -2.554561|    0.175642|    0.111812|    2.863041|    1.852933|    0.152742|
+-----------------------------------------------------------------------+
|        File Writing Summary       |              Filename             |
+-----------------------------------------------------------------------+
|SU2 restart                        |solution_flow.dat                  |
|Paraview                           |flow.vtu                           |
|Paraview surface                   |surface_flow.vtu                   |
+-----------------------------------------------------------------------+

Writing the forces breakdown file (forces_breakdown.dat).
+-------------------------------------------------------------------------------------------------------+
|  Inner_Iter|   Time_Iter|    rms[Rho]|   rms[RhoU]|   rms[RhoV]|   rms[RhoE]|          CL|          CD|
+-------------------------------------------------------------------------------------------------------+
|         311|           0|   -2.557350|    0.177696|    0.113702|    2.854519|    1.846069|    0.151403|
|         312|           0|   -2.559577|    0.177945|    0.113618|    2.847297|    1.839321|    0.150220|
|         313|           0|   -2.561480|    0.176257|    0.111510|    2.841328|    1.832770|    0.149204|
|         314|           0|   -2.563324|    0.172635|    0.107343|    2.836490|    1.826496|    0.148365|
|         315|           0|   -2.565270|    0.167029|    0.101119|    2.832723|    1.820572|    0.147710|
|         316|           0|   -2.567498|    0.159397|    0.092823|    2.829860|    1.815066|    0.147244|
|         317|           0|   -2.570143|    0.149747|    0.082434|    2.827732|    1.810040|    0.146971|
|         318|           0|   -2.573313|    0.138090|    0.070017|    2.826159|    1.805548|    0.146890|
|         319|           0|   -2.577080|    0.124454|    0.055638|    2.824933|    1.801636|    0.147001|
|         320|           0|   -2.581466|    0.108936|    0.039413|    2.823901|    1.798345|    0.147299|
+-----------------------------------------------------------------------+
|        File Writing Summary       |              Filename             |
+-----------------------------------------------------------------------+
|SU2 restart                        |solution_flow.dat                  |
|Paraview                           |flow.vtu                           |
|Paraview surface                   |surface_flow.vtu                   |
+-----------------------------------------------------------------------+

Writing the forces breakdown file (forces_breakdown.dat).
+-------------------------------------------------------------------------------------------------------+
|  Inner_Iter|   Time_Iter|    rms[Rho]|   rms[RhoU]|   rms[RhoV]|   rms[RhoE]|          CL|          CD|
+-------------------------------------------------------------------------------------------------------+
|         321|           0|   -2.586527|    0.091611|    0.021435|    2.822850|    1.795704|    0.147779|
|         322|           0|   -2.592298|    0.072700|    0.001928|    2.821582|    1.793738|    0.148432|
|         323|           0|   -2.598766|    0.052432|   -0.018730|    2.819969|    1.792462|    0.149250|
|         324|           0|   -2.605928|    0.031054|   -0.040096|    2.817817|    1.791882|    0.150221|
|         325|           0|   -2.613844|    0.008988|   -0.061593|    2.814919|    1.791997|    0.151333|
|         326|           0|   -2.622511|   -0.013292|   -0.082526|    2.811136|    1.792797|    0.152571|
|         327|           0|   -2.631814|   -0.035222|   -0.102102|    2.806451|    1.794266|    0.153920|
|         328|           0|   -2.641590|   -0.056172|   -0.119463|    2.800897|    1.796379|    0.155364|
|         329|           0|   -2.651657|   -0.075429|   -0.133751|    2.794498|    1.799105|    0.156887|
|         330|           0|   -2.661826|   -0.092258|   -0.144295|    2.787308|    1.802404|    0.158470|
+-----------------------------------------------------------------------+
|        File Writing Summary       |              Filename             |
+-----------------------------------------------------------------------+
|SU2 restart                        |solution_flow.dat                  |
|Paraview                           |flow.vtu                           |
|Paraview surface                   |surface_flow.vtu                   |
+-----------------------------------------------------------------------+

Writing the forces breakdown file (forces_breakdown.dat).
+-------------------------------------------------------------------------------------------------------+
|  Inner_Iter|   Time_Iter|    rms[Rho]|   rms[RhoU]|   rms[RhoV]|   rms[RhoE]|          CL|          CD|
+-------------------------------------------------------------------------------------------------------+
|         331|           0|   -2.671925|   -0.106041|   -0.150700|    2.779394|    1.806237|    0.160097|
|         332|           0|   -2.681728|   -0.116370|   -0.152948|    2.770904|    1.810550|    0.161748|
|         333|           0|   -2.691017|   -0.123109|   -0.151349|    2.761952|    1.815295|    0.163406|
|         334|           0|   -2.699570|   -0.126413|   -0.146561|    2.752736|    1.820412|    0.165052|
|         335|           0|   -2.707355|   -0.126418|   -0.139377|    2.743321|    1.825844|    0.166670|
|         336|           0|   -2.714333|   -0.123727|   -0.130664|    2.733781|    1.831528|    0.168242|
|         337|           0|   -2.720305|   -0.119071|   -0.121210|    2.724426|    1.837401|    0.169751|
|         338|           0|   -2.725300|   -0.113204|   -0.111741|    2.715390|    1.843395|    0.171183|
|         339|           0|   -2.729587|   -0.106957|   -0.102819|    2.706546|    1.849452|    0.172525|
|         340|           0|   -2.733118|   -0.100919|   -0.094821|    2.698175|    1.855503|    0.173761|
+-----------------------------------------------------------------------+
|        File Writing Summary       |              Filename             |
+-----------------------------------------------------------------------+
|SU2 restart                        |solution_flow.dat                  |
|Paraview                           |flow.vtu                           |
|Paraview surface                   |surface_flow.vtu                   |
+-----------------------------------------------------------------------+

Writing the forces breakdown file (forces_breakdown.dat).
+-------------------------------------------------------------------------------------------------------+
|  Inner_Iter|   Time_Iter|    rms[Rho]|   rms[RhoU]|   rms[RhoV]|   rms[RhoE]|          CL|          CD|
+-------------------------------------------------------------------------------------------------------+
|         341|           0|   -2.736014|   -0.095511|   -0.088028|    2.690387|    1.861489|    0.174883|
|         342|           0|   -2.738449|   -0.091031|   -0.082642|    2.683242|    1.867346|    0.175879|
|         343|           0|   -2.740615|   -0.087720|   -0.078777|    2.676762|    1.873020|    0.176741|
|         344|           0|   -2.742616|   -0.085761|   -0.076492|    2.671049|    1.878452|    0.177461|
|         345|           0|   -2.744650|   -0.085258|   -0.075824|    2.666031|    1.883594|    0.178035|
|         346|           0|   -2.747026|   -0.086187|   -0.076717|    2.661463|    1.888397|    0.178457|
|         347|           0|   -2.749887|   -0.088593|   -0.079167|    2.657246|    1.892823|    0.178728|
|         348|           0|   -2.753328|   -0.092478|   -0.083093|    2.653306|    1.896831|    0.178846|
|         349|           0|   -2.757398|   -0.097797|   -0.088382|    2.649577|    1.900394|    0.178814|
|         350|           0|   -2.762238|   -0.104457|   -0.094907|    2.645868|    1.903482|    0.178632|
+-----------------------------------------------------------------------+
[...]
|         905|           0|   -4.343085|   -1.235468|   -1.666412|    1.247508|    1.938896|    0.168000|
|         906|           0|   -4.400389|   -1.262061|   -1.681305|    1.178615|    1.938904|    0.168002|
|         907|           0|   -4.446707|   -1.323016|   -1.715079|    1.088804|    1.938914|    0.168005|
|         908|           0|   -4.455014|   -1.419197|   -1.758642|    1.010620|    1.938925|    0.168007|
|         909|           0|   -4.420773|   -1.558773|   -1.795719|    1.001890|    1.938937|    0.168010|
|         910|           0|   -4.362108|   -1.745769|   -1.809361|    1.073097|    1.938949|    0.168013|
+-----------------------------------------------------------------------+
|        File Writing Summary       |              Filename             |
+-----------------------------------------------------------------------+
|SU2 restart                        |solution_flow.dat                  |
|Paraview                           |flow.vtu                           |
|Paraview surface                   |surface_flow.vtu                   |
+-----------------------------------------------------------------------+

Writing the forces breakdown file (forces_breakdown.dat).
+-------------------------------------------------------------------------------------------------------+
|  Inner_Iter|   Time_Iter|    rms[Rho]|   rms[RhoU]|   rms[RhoV]|   rms[RhoE]|          CL|          CD|
+-------------------------------------------------------------------------------------------------------+
|         911|           0|   -4.294694|   -1.802944|   -1.793936|    1.175996|    1.938963|    0.168017|
|         912|           0|   -4.221491|   -1.557930|   -1.753398|    1.285139|    1.938976|    0.168020|
|         913|           0|   -4.139604|   -1.312609|   -1.690668|    1.397715|    1.938991|    0.168023|
|         914|           0|   -4.055782|   -1.118116|   -1.610670|    1.505648|    1.939006|    0.168026|
|         915|           0|   -4.248019|   -1.224790|   -1.660687|    1.326536|    1.939023|    0.168030|
|         916|           0|   -4.399244|   -1.330739|   -1.711301|    1.160100|    1.939039|    0.168034|
|         917|           0|   -4.461467|   -1.432984|   -1.752650|    1.041777|    1.939056|    0.168037|
|         918|           0|   -4.464097|   -1.529330|   -1.783878|    0.988334|    1.939072|    0.168040|
|         919|           0|   -4.461061|   -1.617661|   -1.806751|    0.968896|    1.939090|    0.168044|
|         920|           0|   -4.474242|   -1.694411|   -1.822970|    0.949292|    1.939108|    0.168047|
+-----------------------------------------------------------------------+
|        File Writing Summary       |              Filename             |
+-----------------------------------------------------------------------+
|SU2 restart                        |solution_flow.dat                  |
|Paraview                           |flow.vtu                           |
|Paraview surface                   |surface_flow.vtu                   |
+-----------------------------------------------------------------------+

Writing the forces breakdown file (forces_breakdown.dat).
+-------------------------------------------------------------------------------------------------------+
|  Inner_Iter|   Time_Iter|    rms[Rho]|   rms[RhoU]|   rms[RhoV]|   rms[RhoE]|          CL|          CD|
+-------------------------------------------------------------------------------------------------------+
|         921|           0|   -4.503872|   -1.755135|   -1.833941|    0.919742|    1.939126|    0.168050|
|         922|           0|   -4.547206|   -1.798151|   -1.841531|    0.879488|    1.939143|    0.168053|
|         923|           0|   -4.601124|   -1.826313|   -1.847532|    0.830597|    1.939161|    0.168056|
|         924|           0|   -4.531243|   -1.969568|   -1.852795|    0.933238|    1.939179|    0.168058|
|         925|           0|   -4.422270|   -1.716234|   -1.837426|    1.088440|    1.939197|    0.168061|
|         926|           0|   -4.340845|   -1.472920|   -1.797209|    1.202970|    1.939214|    0.168063|
|         927|           0|   -4.299540|   -1.330734|   -1.749132|    1.267211|    1.939231|    0.168065|
|         928|           0|   -4.300283|   -1.258645|   -1.713121|    1.282699|    1.939247|    0.168066|
|         929|           0|   -4.336825|   -1.238535|   -1.699800|    1.254592|    1.939264|    0.168068|
|         930|           0|   -4.393604|   -1.259444|   -1.711850|    1.190585|    1.939279|    0.168068|
+-----------------------------------------------------------------------+
|        File Writing Summary       |              Filename             |
+-----------------------------------------------------------------------+
|SU2 restart                        |solution_flow.dat                  |
|Paraview                           |flow.vtu                           |
|Paraview surface                   |surface_flow.vtu                   |
+-----------------------------------------------------------------------+

Writing the forces breakdown file (forces_breakdown.dat).
+-------------------------------------------------------------------------------------------------------+
|  Inner_Iter|   Time_Iter|    rms[Rho]|   rms[RhoU]|   rms[RhoV]|   rms[RhoE]|          CL|          CD|
+-------------------------------------------------------------------------------------------------------+
|         931|           0|   -4.444769|   -1.315728|   -1.746967|    1.102469|    1.939295|    0.168069|
|         932|           0|   -4.461049|   -1.407637|   -1.796811|    1.018348|    1.939309|    0.168070|
|         933|           0|   -4.432738|   -1.543698|   -1.843722|    0.994828|    1.939324|    0.168070|
|         934|           0|   -4.376143|   -1.737682|   -1.864730|    1.056140|    1.939337|    0.168069|
|         935|           0|   -4.308994|   -1.855202|   -1.849081|    1.157014|    1.939350|    0.168069|
|         936|           0|   -4.236205|   -1.611529|   -1.802686|    1.266064|    1.939361|    0.168069|
|         937|           0|   -4.154982|   -1.351106|   -1.732630|    1.378694|    1.939373|    0.168068|
|         938|           0|   -4.067499|   -1.143976|   -1.643576|    1.491203|    1.939383|    0.168067|
|         939|           0|   -4.215187|   -1.205522|   -1.675581|    1.359311|    1.939394|    0.168066|
|         940|           0|   -4.381283|   -1.312526|   -1.732810|    1.186821|    1.939403|    0.168064|
+-----------------------------------------------------------------------+
|        File Writing Summary       |              Filename             |
+-----------------------------------------------------------------------+
|SU2 restart                        |solution_flow.dat                  |
|Paraview                           |flow.vtu                           |
|Paraview surface                   |surface_flow.vtu                   |
+-----------------------------------------------------------------------+

Writing the forces breakdown file (forces_breakdown.dat).
+-------------------------------------------------------------------------------------------------------+
|  Inner_Iter|   Time_Iter|    rms[Rho]|   rms[RhoU]|   rms[RhoV]|   rms[RhoE]|          CL|          CD|
+-------------------------------------------------------------------------------------------------------+
|         941|           0|   -4.461493|   -1.416822|   -1.782523|    1.055518|    1.939412|    0.168063|
|         942|           0|   -4.469068|   -1.516132|   -1.821512|    0.991235|    1.939419|    0.168061|
|         943|           0|   -4.463498|   -1.608442|   -1.850713|    0.969014|    1.939426|    0.168059|
|         944|           0|   -4.472085|   -1.690422|   -1.871608|    0.951842|    1.939433|    0.168057|
|         945|           0|   -4.498337|   -1.757167|   -1.885512|    0.924706|    1.939440|    0.168055|
|         946|           0|   -4.539078|   -1.805653|   -1.894493|    0.886462|    1.939445|    0.168053|
|         947|           0|   -4.591175|   -1.837631|   -1.900883|    0.838851|    1.939450|    0.168051|
|         948|           0|   -4.551201|   -1.993023|   -1.906874|    0.904647|    1.939454|    0.168049|
|         949|           0|   -4.440358|   -1.782418|   -1.890896|    1.063149|    1.939459|    0.168047|
|         950|           0|   -4.353099|   -1.510982|   -1.844129|    1.185849|    1.939463|    0.168045|
+-----------------------------------------------------------------------+
|        File Writing Summary       |              Filename             |
+-----------------------------------------------------------------------+
|SU2 restart                        |solution_flow.dat                  |
|Paraview                           |flow.vtu                           |
|Paraview surface                   |surface_flow.vtu                   |
+-----------------------------------------------------------------------+

Writing the forces breakdown file (forces_breakdown.dat).
+-------------------------------------------------------------------------------------------------------+
|  Inner_Iter|   Time_Iter|    rms[Rho]|   rms[RhoU]|   rms[RhoV]|   rms[RhoE]|          CL|          CD|
+-------------------------------------------------------------------------------------------------------+
|         951|           0|   -4.304749|   -1.352205|   -1.786396|    1.258655|    1.939466|    0.168043|
|         952|           0|   -4.298593|   -1.268974|   -1.741379|    1.282230|    1.939469|    0.168041|
|         953|           0|   -4.330062|   -1.240543|   -1.721281|    1.261076|    1.939473|    0.168039|
|         954|           0|   -4.385497|   -1.254806|   -1.729291|    1.202328|    1.939476|    0.168037|
|         955|           0|   -4.440702|   -1.305199|   -1.763924|    1.116441|    1.939479|    0.168036|
|         956|           0|   -4.465247|   -1.390909|   -1.818478|    1.027070|    1.939482|    0.168035|
|         957|           0|   -4.443730|   -1.519247|   -1.876195|    0.988232|    1.939485|    0.168034|
|         958|           0|   -4.389841|   -1.706647|   -1.909349|    1.037709|    1.939488|    0.168032|
|         959|           0|   -4.323138|   -1.876326|   -1.898582|    1.136121|    1.939491|    0.168031|
|         960|           0|   -4.250891|   -1.667714|   -1.849260|    1.245268|    1.939494|    0.168031|
+-----------------------------------------------------------------------+
|        File Writing Summary       |              Filename             |
+-----------------------------------------------------------------------+
|SU2 restart                        |solution_flow.dat                  |
|Paraview                           |flow.vtu                           |
|Paraview surface                   |surface_flow.vtu                   |
+-----------------------------------------------------------------------+

Writing the forces breakdown file (forces_breakdown.dat).
+-------------------------------------------------------------------------------------------------------+
|  Inner_Iter|   Time_Iter|    rms[Rho]|   rms[RhoU]|   rms[RhoV]|   rms[RhoE]|          CL|          CD|
+-------------------------------------------------------------------------------------------------------+
|         961|           0|   -4.170916|   -1.394524|   -1.773508|    1.357751|    1.939498|    0.168031|
|         962|           0|   -4.083878|   -1.178164|   -1.678514|    1.470964|    1.939502|    0.168030|
|         963|           0|   -4.177993|   -1.184934|   -1.683768|    1.394422|    1.939506|    0.168030|
|         964|           0|   -4.356545|   -1.292363|   -1.746089|    1.217310|    1.939510|    0.168030|
|         965|           0|   -4.457820|   -1.397855|   -1.803586|    1.073137|    1.939516|    0.168030|
|         966|           0|   -4.475133|   -1.499107|   -1.850345|    0.994722|    1.939520|    0.168030|
|         967|           0|   -4.468430|   -1.594299|   -1.886253|    0.967390|    1.939526|    0.168031|
|         968|           0|   -4.473205|   -1.680602|   -1.912476|    0.951156|    1.939532|    0.168032|
|         969|           0|   -4.496507|   -1.753154|   -1.930151|    0.925772|    1.939539|    0.168033|
|         970|           0|   -4.535292|   -1.807850|   -1.941390|    0.888775|    1.939545|    0.168034|
+-----------------------------------------------------------------------+
|        File Writing Summary       |              Filename             |
+-----------------------------------------------------------------------+
|SU2 restart                        |solution_flow.dat                  |
|Paraview                           |flow.vtu                           |
|Paraview surface                   |surface_flow.vtu                   |
+-----------------------------------------------------------------------+

Writing the forces breakdown file (forces_breakdown.dat).
+-------------------------------------------------------------------------------------------------------+
|  Inner_Iter|   Time_Iter|    rms[Rho]|   rms[RhoU]|   rms[RhoV]|   rms[RhoE]|          CL|          CD|
+-------------------------------------------------------------------------------------------------------+
|         971|           0|   -4.586646|   -1.844973|   -1.948987|    0.841230|    1.939552|    0.168035|
|         972|           0|   -4.577558|   -1.982671|   -1.956549|    0.868984|    1.939559|    0.168037|
|         973|           0|   -4.463716|   -1.859806|   -1.943007|    1.031733|    1.939568|    0.168039|
|         974|           0|   -4.369116|   -1.555616|   -1.891439|    1.164566|    1.939576|    0.168040|
|         975|           0|   -4.312269|   -1.377073|   -1.824007|    1.247551|    1.939585|    0.168042|
|         976|           0|   -4.297850|   -1.280980|   -1.769153|    1.280535|    1.939594|    0.168044|
|         977|           0|   -4.322619|   -1.243084|   -1.741153|    1.267618|    1.939603|    0.168046|
|         978|           0|   -4.374823|   -1.249883|   -1.743743|    1.215477|    1.939612|    0.168047|
|         979|           0|   -4.432147|   -1.293804|   -1.776082|    1.133668|    1.939622|    0.168049|
|         980|           0|   -4.464266|   -1.372873|   -1.833176|    1.041874|    1.939632|    0.168051|
+-----------------------------------------------------------------------+
|        File Writing Summary       |              Filename             |
+-----------------------------------------------------------------------+
|SU2 restart                        |solution_flow.dat                  |
|Paraview                           |flow.vtu                           |
|Paraview surface                   |surface_flow.vtu                   |
+-----------------------------------------------------------------------+

Writing the forces breakdown file (forces_breakdown.dat).
+-------------------------------------------------------------------------------------------------------+
|  Inner_Iter|   Time_Iter|    rms[Rho]|   rms[RhoU]|   rms[RhoV]|   rms[RhoE]|          CL|          CD|
+-------------------------------------------------------------------------------------------------------+
|         981|           0|   -4.451055|   -1.493020|   -1.900442|    0.988358|    1.939642|    0.168053|
|         982|           0|   -4.401491|   -1.671298|   -1.947436|    1.022310|    1.939652|    0.168054|
|         983|           0|   -4.336463|   -1.881397|   -1.944358|    1.115306|    1.939662|    0.168057|
|         984|           0|   -4.265426|   -1.734509|   -1.893354|    1.223541|    1.939672|    0.168058|
|         985|           0|   -4.187307|   -1.445678|   -1.812622|    1.335340|    1.939684|    0.168060|
|         986|           0|   -4.101363|   -1.217756|   -1.712888|    1.448803|    1.939694|    0.168062|
|         987|           0|   -4.138171|   -1.163623|   -1.684625|    1.431124|    1.939704|    0.168063|
|         988|           0|   -4.325057|   -1.271541|   -1.750506|    1.251465|    1.939714|    0.168065|
|         989|           0|   -4.446220|   -1.378349|   -1.815553|    1.096888|    1.939724|    0.168066|
|         990|           0|   -4.476106|   -1.481709|   -1.871152|    1.004196|    1.939734|    0.168067|
+-----------------------------------------------------------------------+
|        File Writing Summary       |              Filename             |
+-----------------------------------------------------------------------+
|SU2 restart                        |solution_flow.dat                  |
|Paraview                           |flow.vtu                           |
|Paraview surface                   |surface_flow.vtu                   |
+-----------------------------------------------------------------------+

Writing the forces breakdown file (forces_breakdown.dat).
+-------------------------------------------------------------------------------------------------------+
|  Inner_Iter|   Time_Iter|    rms[Rho]|   rms[RhoU]|   rms[RhoV]|   rms[RhoE]|          CL|          CD|
+-------------------------------------------------------------------------------------------------------+
|         991|           0|   -4.470129|   -1.579911|   -1.915830|    0.969699|    1.939744|    0.168068|
|         992|           0|   -4.471075|   -1.670511|   -1.949960|    0.954056|    1.939753|    0.168069|
|         993|           0|   -4.490972|   -1.748854|   -1.974084|    0.930872|    1.939762|    0.168070|
|         994|           0|   -4.526815|   -1.809817|   -1.989676|    0.896387|    1.939771|    0.168070|
|         995|           0|   -4.576038|   -1.852172|   -1.999802|    0.850740|    1.939780|    0.168071|
|         996|           0|   -4.600867|   -1.944947|   -2.008921|    0.836925|    1.939788|    0.168071|
|         997|           0|   -4.486438|   -1.957874|   -2.000050|    0.999117|    1.939796|    0.168071|
|         998|           0|   -4.384844|   -1.611679|   -1.943507|    1.142051|    1.939804|    0.168071|
|         999|           0|   -4.319081|   -1.407330|   -1.864094|    1.236043|    1.939811|    0.168071|

----------------------------- Solver Exit -------------------------------

Maximum number of iterations reached (ITER = 1000) before convergence.
+-----------------------------------------------------------------------+
|      Convergence Field     |     Value    |   Criterion  |  Converged |
+-----------------------------------------------------------------------+
|                  Cauchy[CD]|   9.37158e-06|       < 1e-10|          No|
+-----------------------------------------------------------------------+
-------------------------------------------------------------------------
+-----------------------------------------------------------------------+
|        File Writing Summary       |              Filename             |
+-----------------------------------------------------------------------+
|SU2 restart                        |solution_flow.dat                  |
|Paraview                           |flow.vtu                           |
|Paraview surface                   |surface_flow.vtu                   |
+-----------------------------------------------------------------------+

Writing the forces breakdown file (forces_breakdown.dat).

------------------------- Solver Postprocessing -------------------------
Deleted CNumerics container.
Deleted CIntegration container.
Deleted CSolver container.
Deleted CIteration container.
Deleted CInterpolator container.
Deleted CInterface container.
Deleted CGeometry container.
Deleted CFreeFormDefBox class.
Deleted CSurfaceMovement class.
Deleted CVolumetricMovement class.
Deleted CConfig container.
Deleted nInst container.
Deleted COutput class.
-------------------------------------------------------------------------

------------------------- Exit Success (SU2_CFD) ------------------------

