
-------------------------------------------------------------------------
|    ___ _   _ ___                                                      |
|   / __| | | |_  )   Release 7.0.3 "Blackbird"                         |
|   \__ \ |_| |/ /                                                      |
|   |___/\___//___|   Suite (Computational Fluid Dynamics Code)         |
|                                                                       |
-------------------------------------------------------------------------
| SU2 Project Website: https://su2code.github.io                        |
|                                                                       |
| The SU2 Project is maintained by the SU2 Foundation                   |
| (http://su2foundation.org)                                            |
-------------------------------------------------------------------------
| Copyright 2012-2020, SU2 Contributors                                 |
|                                                                       |
| SU2 is free software; you can redistribute it and/or                  |
| modify it under the terms of the GNU Lesser General Public            |
| License as published by the Free Software Foundation; either          |
| version 2.1 of the License, or (at your option) any later version.    |
|                                                                       |
| SU2 is distributed in the hope that it will be useful,                |
| but WITHOUT ANY WARRANTY; without even the implied warranty of        |
| MERCHANTABILITY or FITNESS FOR A PARTICULAR PURPOSE. See the GNU      |
| Lesser General Public License for more details.                       |
|                                                                       |
| You should have received a copy of the GNU Lesser General Public      |
| License along with SU2. If not, see <http://www.gnu.org/licenses/>.   |
-------------------------------------------------------------------------

Parsing config file for zone 0

----------------- Physical Case Definition ( Zone 0 ) -------------------
Compressible Euler equations.
Mach number: 0.21.
Angle of attack (AoA): 2 deg, and angle of sideslip (AoS): 0 deg.
No restart solution, use the values at infinity (freestream).
Dimensional simulation.
The reference area is 55.7983 m^2.
The semi-span will be computed using the max y(3D) value.
The reference length is 1.8008 m.
Surface(s) where the force coefficients are evaluated and 
their reference origin for moment computation: 
   - VTP (9.6115, 0, 2.5277).
   - Fuselage (9.6115, 0, 2.5277).
   - HTP (9.6115, 0, 2.5277).
   - Wing (9.6115, 0, 2.5277) m.
Surface(s) where the objective function is evaluated: airfoil.
Surface(s) plotted in the output file: VTP, Fuselage, HTP, Wing.
Surface(s) to be analyzed in detail: airfoil.
Surface(s) affected by the design variables: VTP, Fuselage, HTP, Wing.
Input mesh file name: deformed.su2

--------------- Space Numerical Integration ( Zone 0 ) ------------------
Roe (with entropy fix = 0) solver for the flow inviscid terms.
Roe with DDES's FD low-dissipation function.
Second order integration in space, with slope limiter.
Venkatakrishnan slope-limiting method, with constant: 0.05. 
The reference element size is: 1. 
Gradient for upwind reconstruction: Green-Gauss.
Gradient for viscous and source terms: Green-Gauss.

--------------- Time Numerical Integration  ( Zone 0 ) ------------------
Local time stepping (steady state simulation).
Euler implicit method for the flow equations.
FGMRES is used for solving the linear system.
Using a ILU(0) preconditioning.
Convergence criteria of the linear solver: 1e-06.
Max number of linear iterations: 5.
V Multigrid Cycle, with 3 multigrid levels.
Damping factor for the residual restriction: 0.75.
Damping factor for the correction prolongation: 0.75.
No CFL adaptation.
+-------------------------------------------+
|  MG Level| Presmooth|PostSmooth|CorrectSmo|
+-------------------------------------------+
|         0|         1|         0|         0|
|         1|         2|         0|         0|
|         2|         3|         0|         0|
|         3|         3|         0|         0|
+-------------------------------------------+
Courant-Friedrichs-Lewy number:        1

------------------ Convergence Criteria  ( Zone 0 ) ---------------------
Maximum number of solver subiterations: 500.
Begin convergence monitoring at iteration 10.
Residual minimum value: 1e-8.
Cauchy series min. value: 1e-10.
Number of Cauchy elements: 100.
Begin windowed time average at iteration 15.

-------------------- Output Information ( Zone 0 ) ----------------------
Writing solution files every 10 iterations.
Writing the convergence history file every 1 inner iterations.
Writing the screen convergence history every 1 inner iterations.
The tabular file format is Tecplot (.dat).
Convergence history file name: history.
Forces breakdown file name: forces_breakdown.dat.
Surface file name: surface_flow.
Volume file name: flow.
Restart file name: solution_flow.dat.

------------- Config File Boundary Information ( Zone 0 ) ---------------
+-----------------------------------------------------------------------+
|                        Marker Type|                        Marker Name|
+-----------------------------------------------------------------------+
|                         Euler wall|                                VTP|
|                                   |                           Fuselage|
|                                   |                                HTP|
|                                   |                               Wing|
+-----------------------------------------------------------------------+
|                          Far-field|                           Farfield|
+-----------------------------------------------------------------------+
|                     Symmetry plane|                                  0|
+-----------------------------------------------------------------------+
|           Deformable mesh boundary|                            airfoil|
+-----------------------------------------------------------------------+

-------------------- Output Preprocessing ( Zone 0 ) --------------------
Screen output fields: INNER_ITER, TIME_ITER, RMS_DENSITY, RMS_MOMENTUM-X, RMS_MOMENTUM-Y, RMS_ENERGY, LIFT, DRAG
  Info: Ignoring the following history output groups:
  TIME_ITER
History output group(s): ITER, RMS_RES, AERO_COEFF
Warning: No (valid) fields chosen for convergence monitoring. Convergence monitoring inactive.
Warning: No (valid) fields chosen for time convergence monitoring. Time convergence monitoring inactive.
Volume output fields: COORDINATES, SOLUTION, PRIMITIVE

------------------- Geometry Preprocessing ( Zone 0 ) -------------------
Three dimensional problem.
134403 grid points before partitioning.
750945 volume elements before partitioning.
5 surface markers.
2298 boundary elements in index 0 (Marker = VTP).
6838 boundary elements in index 1 (Marker = Fuselage).
9046 boundary elements in index 2 (Marker = HTP).
42568 boundary elements in index 3 (Marker = Wing).
1280 boundary elements in index 4 (Marker = Farfield).
Executing the partitioning functions.
Building the graph adjacency structure.
Calling ParMETIS... graph partitioning complete (14371 edge cuts).
Distributing ParMETIS coloring.
Rebalancing vertices.
Rebalancing volume element connectivity.
Rebalancing markers and surface elements.
142496 vertices including ghost points. 
772621 interior elements including halo cells. 
772621 tetrahedra.
Establishing MPI communication patterns.
Setting point connectivity.
Renumbering points (Reverse Cuthill McKee Ordering).
Recomputing point connectivity.
Setting element connectivity.
Checking the numerical grid orientation.
Identifying edges and vertices.
Computing centers of gravity.
Setting the control volume structure.
Volume of the computational grid: 5.51661e+06.
Searching for the closest normal neighbors to the surfaces.
Storing a mapping from global to local point index.
Compute the surface curvature.
Max K: 877.932. Mean K: 41.4767. Standard deviation K: 83.6219.
Checking for periodicity.
Computing mesh quality statistics for the dual control volumes.
+--------------------------------------------------------------+
|           Mesh Quality Metric|        Minimum|        Maximum|
+--------------------------------------------------------------+
|    Orthogonality Angle (deg.)|        32.9089|        84.7055|
|     CV Face Area Aspect Ratio|        1.25195|        323.947|
|           CV Sub-Volume Ratio|          1.035|        2954.39|
+--------------------------------------------------------------+
Setting the multigrid structure.
+-------------------------------------------+
|  MG Level|       CVs|Aggl. Rate|       CFL|
+-------------------------------------------+
|         0|    142496|    1/1.00|         1|
|         1|     25276|    1/5.64|  0.842804|
|         2|      5944|    1/4.25|  0.780323|
Finding max control volume width.
Communicating number of neighbors.
Semi-span length = 16.1166 m.
Wetted area = 186.482 m^2.
Area projection in the x-plane = 11.8107 m^2, y-plane = 24.7933 m^2, z-plane = 75.0015 m^2.
Max. coordinate in the x-direction = 16.6583 m, y-direction = 16.1166 m, z-direction = 5.45514 m.
Min. coordinate in the x-direction = 2.50043 m, y-direction = -16.1165 m, z-direction = 2.26526 m.
Checking if Euler & Symmetry markers are straight/plane:
Boundary marker VTP is NOT a single plane.
Boundary marker Fuselage is NOT a single plane.
Boundary marker HTP is NOT a single plane.
Boundary marker Wing is NOT a single plane.
Boundary marker 0 is a single plane.

-------------------- Solver Preprocessing ( Zone 0 ) --------------------
Inviscid flow: Computing density based on free-stream
temperature and pressure using the ideal gas law.
Force coefficients computed using free-stream values.

-- Models:
+------------------------------------------------------------------------------+
|          Viscosity Model|        Conductivity Model|              Fluid Model|
+------------------------------------------------------------------------------+
|                        -|                         -|             STANDARD_AIR|
+------------------------------------------------------------------------------+
-- Fluid properties:
+------------------------------------------------------------------------------+
|                  Name|    Dim. value|    Ref. value|      Unit|Non-dim. value|
+------------------------------------------------------------------------------+
|          Gas Constant|       287.058|             1|  N.m/kg.K|       287.058|
|      Spec. Heat Ratio|             -|             -|         -|           1.4|
+------------------------------------------------------------------------------+
-- Initial and free-stream conditions:
+------------------------------------------------------------------------------+
|                  Name|    Dim. value|    Ref. value|      Unit|Non-dim. value|
+------------------------------------------------------------------------------+
|       Static Pressure|        101325|             1|        Pa|        101325|
|               Density|       1.22498|             1|    kg/m^3|       1.22498|
|           Temperature|        288.15|             1|         K|        288.15|
|          Total Energy|        209343|             1|   m^2/s^2|        209343|
|            Velocity-X|       71.4188|             1|       m/s|       71.4188|
|            Velocity-Y|             0|             1|       m/s|             0|
|            Velocity-Z|         2.494|             1|       m/s|         2.494|
|    Velocity Magnitude|       71.4624|             1|       m/s|       71.4624|
+------------------------------------------------------------------------------+
|           Mach Number|             -|             -|         -|          0.21|
+------------------------------------------------------------------------------+
Initialize Jacobian structure (Euler). MG level: 0.
Initialize Jacobian structure (Euler). MG level: 1.
Initialize Jacobian structure (Euler). MG level: 2.

------------------- Numerics Preprocessing ( Zone 0 ) -------------------

----------------- Integration Preprocessing ( Zone 0 ) ------------------

------------------- Iteration Preprocessing ( Zone 0 ) ------------------
Euler/Navier-Stokes/RANS fluid iteration.

------------------------------ Begin Solver -----------------------------

Simulation Run using the Single-zone Driver
+-------------------------------------------------------------------------------------------------------+
|  Inner_Iter|   Time_Iter|    rms[Rho]|   rms[RhoU]|   rms[RhoV]|   rms[RhoE]|          CL|          CD|
+-------------------------------------------------------------------------------------------------------+
|           0|           0|   -1.285718|    0.818288|    0.877499|    4.179752|    0.193167|    0.420460|
|           1|           0|   -1.399006|    0.736910|    0.787836|    4.067193|    0.337350|    0.712934|
|           2|           0|   -1.431591|    0.790509|    0.797047|    4.035174|    0.438523|    0.894468|
|           3|           0|   -1.418043|    0.878506|    0.849634|    4.048826|    0.505332|    0.984945|
|           4|           0|   -1.396321|    0.958978|    0.904228|    4.070474|    0.546266|    1.003629|
|           5|           0|   -1.379312|    1.028029|    0.950771|    4.087350|    0.568983|    0.968459|
|           6|           0|   -1.367203|    1.087631|    0.989378|    4.099217|    0.579832|    0.895298|
|           7|           0|   -1.356785|    1.139763|    1.021926|    4.109180|    0.583314|    0.797525|
|           8|           0|   -1.345298|    1.185705|    1.050367|    4.119960|    0.582604|    0.686128|
|           9|           0|   -1.331514|    1.226354|    1.076112|    4.132810|    0.579768|    0.569854|
|          10|           0|   -1.315877|    1.262493|    1.100315|    4.147360|    0.575908|    0.455275|
+-----------------------------------------------------------------------+
|        File Writing Summary       |              Filename             |
+-----------------------------------------------------------------------+
|SU2 restart                        |solution_flow.dat                  |
|Paraview                           |flow.vtu                           |
|Paraview surface                   |surface_flow.vtu                   |
+-----------------------------------------------------------------------+

Writing the forces breakdown file (forces_breakdown.dat).
+-------------------------------------------------------------------------------------------------------+
|  Inner_Iter|   Time_Iter|    rms[Rho]|   rms[RhoU]|   rms[RhoV]|   rms[RhoE]|          CL|          CD|
+-------------------------------------------------------------------------------------------------------+
|          11|           0|   -1.299549|    1.294715|    1.123894|    4.162519|    0.571496|    0.347001|
|          12|           0|   -1.283947|    1.323482|    1.147286|    4.176930|    0.566517|    0.248040|
|          13|           0|   -1.270247|    1.348996|    1.170488|    4.189461|    0.560780|    0.160109|
|          14|           0|   -1.259116|    1.371324|    1.193173|    4.199450|    0.553884|    0.083852|
|          15|           0|   -1.250573|    1.390193|    1.214630|    4.206875|    0.545305|    0.019162|
|          16|           0|   -1.244100|    1.405164|    1.234046|    4.212275|    0.534565|   -0.034548|
|          17|           0|   -1.238393|    1.415848|    1.250591|    4.217078|    0.521292|   -0.078128|
|          18|           0|   -1.232170|    1.421875|    1.263428|    4.222680|    0.505237|   -0.112537|
|          19|           0|   -1.223631|    1.422920|    1.271791|    4.231106|    0.486283|   -0.138762|
|          20|           0|   -1.211076|    1.418843|    1.275181|    4.244234|    0.464434|   -0.157748|
+-----------------------------------------------------------------------+
|        File Writing Summary       |              Filename             |
+-----------------------------------------------------------------------+
|SU2 restart                        |solution_flow.dat                  |
|Paraview                           |flow.vtu                           |
|Paraview surface                   |surface_flow.vtu                   |
+-----------------------------------------------------------------------+

Writing the forces breakdown file (forces_breakdown.dat).
+-------------------------------------------------------------------------------------------------------+
|  Inner_Iter|   Time_Iter|    rms[Rho]|   rms[RhoU]|   rms[RhoV]|   rms[RhoE]|          CL|          CD|
+-------------------------------------------------------------------------------------------------------+
|          21|           0|   -1.193938|    1.409706|    1.273273|    4.262635|    0.439835|   -0.170381|
|          22|           0|   -1.172730|    1.396495|    1.266534|    4.285674|    0.412766|   -0.177462|
|          23|           0|   -1.148676|    1.380565|    1.256106|    4.311919|    0.383641|   -0.179701|
|          24|           0|   -1.124097|    1.364353|    1.243606|    4.338749|    0.353044|   -0.177708|
|          25|           0|   -1.101513|    1.351591|    1.232454|    4.363345|    0.321604|   -0.172029|
|          26|           0|   -1.082848|    1.346311|    1.226793|    4.383636|    0.289988|   -0.163170|
|          27|           0|   -1.069493|    1.350642|    1.229515|    4.398133|    0.258889|   -0.151593|
|          28|           0|   -1.062381|    1.364184|    1.241455|    4.405862|    0.229005|   -0.137733|
|          29|           0|   -1.061805|    1.384392|    1.261337|    4.406362|    0.200952|   -0.122010|
|          30|           0|   -1.067273|    1.406678|    1.285781|    4.400025|    0.175390|   -0.104830|
+-----------------------------------------------------------------------+
|        File Writing Summary       |              Filename             |
+-----------------------------------------------------------------------+
|SU2 restart                        |solution_flow.dat                  |
|Paraview                           |flow.vtu                           |
|Paraview surface                   |surface_flow.vtu                   |
+-----------------------------------------------------------------------+

Writing the forces breakdown file (forces_breakdown.dat).
+-------------------------------------------------------------------------------------------------------+
|  Inner_Iter|   Time_Iter|    rms[Rho]|   rms[RhoU]|   rms[RhoV]|   rms[RhoE]|          CL|          CD|
+-------------------------------------------------------------------------------------------------------+
|          31|           0|   -1.077427|    1.427605|    1.310615|    4.388086|    0.152873|   -0.086591|
|          32|           0|   -1.089153|    1.445102|    1.332006|    4.373578|    0.133844|   -0.067688|
|          33|           0|   -1.098926|    1.458136|    1.347866|    4.360295|    0.118677|   -0.048503|
|          34|           0|   -1.101905|    1.465857|    1.357210|    4.353929|    0.107672|   -0.029407|
|          35|           0|   -1.094181|    1.469475|    1.360861|    4.359682|    0.101028|   -0.010756|
|          36|           0|   -1.076407|    1.471753|    1.360650|    4.377775|    0.098810|    0.007123|
|          37|           0|   -1.052423|    1.474907|    1.358756|    4.404150|    0.101014|    0.023927|
|          38|           0|   -1.027520|    1.481931|    1.359577|    4.432661|    0.107506|    0.039384|
|          39|           0|   -1.005637|    1.494735|    1.367951|    4.458560|    0.118065|    0.053265|
|          40|           0|   -0.990051|    1.513509|    1.385902|    4.478175|    0.132386|    0.065385|
+-----------------------------------------------------------------------+
|        File Writing Summary       |              Filename             |
+-----------------------------------------------------------------------+
|SU2 restart                        |solution_flow.dat                  |
|Paraview                           |flow.vtu                           |
|Paraview surface                   |surface_flow.vtu                   |
+-----------------------------------------------------------------------+

Writing the forces breakdown file (forces_breakdown.dat).
+-------------------------------------------------------------------------------------------------------+
|  Inner_Iter|   Time_Iter|    rms[Rho]|   rms[RhoU]|   rms[RhoV]|   rms[RhoE]|          CL|          CD|
+-------------------------------------------------------------------------------------------------------+
|          41|           0|   -0.983447|    1.536001|    1.411444|    4.488569|    0.150127|    0.075606|
|          42|           0|   -0.986720|    1.559282|    1.440813|    4.488927|    0.170870|    0.083834|
|          43|           0|   -0.999867|    1.580303|    1.470044|    4.479109|    0.194134|    0.090024|
|          44|           0|   -1.022850|    1.596199|    1.495511|    4.458849|    0.219396|    0.094178|
|          45|           0|   -1.053683|    1.604875|    1.514154|    4.429584|    0.246105|    0.096333|
|          46|           0|   -1.087509|    1.605035|    1.523280|    4.395269|    0.273690|    0.096576|
|          47|           0|   -1.114474|    1.594944|    1.521675|    4.364375|    0.301595|    0.095027|
|          48|           0|   -1.120917|    1.573669|    1.507957|    4.350696|    0.329268|    0.091844|
|          49|           0|   -1.100247|    1.541232|    1.480955|    4.364000|    0.356183|    0.087213|
|          50|           0|   -1.058923|    1.497876|    1.439408|    4.400972|    0.381834|    0.081344|
+-----------------------------------------------------------------------+
|        File Writing Summary       |              Filename             |
+-----------------------------------------------------------------------+
|SU2 restart                        |solution_flow.dat                  |
|Paraview                           |flow.vtu                           |
|Paraview surface                   |surface_flow.vtu                   |
+-----------------------------------------------------------------------+

Writing the forces breakdown file (forces_breakdown.dat).
+-------------------------------------------------------------------------------------------------------+
|  Inner_Iter|   Time_Iter|    rms[Rho]|   rms[RhoU]|   rms[RhoV]|   rms[RhoE]|          CL|          CD|
+-------------------------------------------------------------------------------------------------------+
|          51|           0|   -1.009899|    1.445617|    1.381514|    4.449075|    0.405750|    0.074461|
|          52|           0|   -0.963707|    1.389458|    1.307523|    4.496454|    0.427518|    0.066799|
|          53|           0|   -0.925896|    1.347401|    1.230661|    4.536424|    0.446777|    0.058597|
|          54|           0|   -0.898461|    1.341915|    1.189345|    4.566293|    0.463245|    0.050091|
|          55|           0|   -0.882405|    1.377332|    1.222199|    4.584740|    0.476681|    0.041504|
|          56|           0|   -0.878056|    1.433577|    1.302800|    4.591208|    0.486943|    0.033050|
|          57|           0|   -0.885839|    1.493057|    1.390799|    4.585148|    0.493951|    0.024922|
|          58|           0|   -0.904800|    1.546054|    1.468885|    4.567567|    0.497703|    0.017290|
|          59|           0|   -0.934943|    1.589401|    1.532125|    4.538220|    0.498276|    0.010301|
|          60|           0|   -0.976235|    1.621954|    1.580483|    4.496566|    0.495813|    0.004074|
+-----------------------------------------------------------------------+
|        File Writing Summary       |              Filename             |
+-----------------------------------------------------------------------+
|SU2 restart                        |solution_flow.dat                  |
|Paraview                           |flow.vtu                           |
|Paraview surface                   |surface_flow.vtu                   |
+-----------------------------------------------------------------------+

Writing the forces breakdown file (forces_breakdown.dat).
+-------------------------------------------------------------------------------------------------------+
|  Inner_Iter|   Time_Iter|    rms[Rho]|   rms[RhoU]|   rms[RhoV]|   rms[RhoE]|          CL|          CD|
+-------------------------------------------------------------------------------------------------------+
|          61|           0|   -1.026442|    1.644431|    1.614724|    4.443898|    0.490524|   -0.001295|
|          62|           0|   -1.079654|    1.655943|    1.635854|    4.384574|    0.482669|   -0.005741|
|          63|           0|   -1.124295|    1.656485|    1.645510|    4.328832|    0.472556|   -0.009231|
|          64|           0|   -1.143149|    1.646974|    1.643851|    4.296712|    0.460516|   -0.011758|
|          65|           0|   -1.128166|    1.627720|    1.630905|    4.303494|    0.446922|   -0.013340|
|          66|           0|   -1.088006|    1.598003|    1.606772|    4.343729|    0.432154|   -0.014019|
|          67|           0|   -1.038933|    1.558165|    1.570925|    4.397777|    0.416604|   -0.013854|
|          68|           0|   -0.993309|    1.508408|    1.522755|    4.449466|    0.400652|   -0.012921|
|          69|           0|   -0.956175|    1.448950|    1.461768|    4.492129|    0.384696|   -0.011305|
|          70|           0|   -0.928955|    1.385501|    1.389448|    4.523941|    0.369108|   -0.009104|
+-----------------------------------------------------------------------+
|        File Writing Summary       |              Filename             |
+-----------------------------------------------------------------------+
|SU2 restart                        |solution_flow.dat                  |
|Paraview                           |flow.vtu                           |
|Paraview surface                   |surface_flow.vtu                   |
+-----------------------------------------------------------------------+

Writing the forces breakdown file (forces_breakdown.dat).
+-------------------------------------------------------------------------------------------------------+
|  Inner_Iter|   Time_Iter|    rms[Rho]|   rms[RhoU]|   rms[RhoV]|   rms[RhoE]|          CL|          CD|
+-------------------------------------------------------------------------------------------------------+
|          71|           0|   -0.911939|    1.326986|    1.309242|    4.544656|    0.354240|   -0.006419|
|          72|           0|   -0.905135|    1.289701|    1.234971|    4.554449|    0.340417|   -0.003359|
|          73|           0|   -0.907723|    1.287118|    1.193141|    4.554220|    0.327938|   -0.000029|
|          74|           0|   -0.919423|    1.314205|    1.205067|    4.544214|    0.317065|    0.003465|
|          75|           0|   -0.939207|    1.356025|    1.256278|    4.525504|    0.308018|    0.007027|
|          76|           0|   -0.966914|    1.399742|    1.318295|    4.498039|    0.300958|    0.010563|
|          77|           0|   -1.000901|    1.438289|    1.375146|    4.463125|    0.296003|    0.013991|
|          78|           0|   -1.039555|    1.468954|    1.421590|    4.421813|    0.293217|    0.017235|
|          79|           0|   -1.078923|    1.491938|    1.456516|    4.377568|    0.292604|    0.020232|
|          80|           0|   -1.114444|    1.506759|    1.480780|    4.334680|    0.294128|    0.022928|
+-----------------------------------------------------------------------+
|        File Writing Summary       |              Filename             |
+-----------------------------------------------------------------------+
|SU2 restart                        |solution_flow.dat                  |
|Paraview                           |flow.vtu                           |
|Paraview surface                   |surface_flow.vtu                   |
+-----------------------------------------------------------------------+

Writing the forces breakdown file (forces_breakdown.dat).
+-------------------------------------------------------------------------------------------------------+
|  Inner_Iter|   Time_Iter|    rms[Rho]|   rms[RhoU]|   rms[RhoV]|   rms[RhoE]|          CL|          CD|
+-------------------------------------------------------------------------------------------------------+
|          81|           0|   -1.140969|    1.513885|    1.495551|    4.298854|    0.297723|    0.025284|
|          82|           0|   -1.153872|    1.513851|    1.501581|    4.277051|    0.303278|    0.027269|
|          83|           0|   -1.153191|    1.506797|    1.498591|    4.271710|    0.310639|    0.028867|
|          84|           0|   -1.142463|    1.494335|    1.488032|    4.280478|    0.319612|    0.030067|
|          85|           0|   -1.126674|    1.476233|    1.470437|    4.297666|    0.329980|    0.030873|
|          86|           0|   -1.109924|    1.453046|    1.446188|    4.317852|    0.341500|    0.031295|
|          87|           0|   -1.095839|    1.425952|    1.416579|    4.336191|    0.353906|    0.031352|
|          88|           0|   -1.086346|    1.395886|    1.382713|    4.350018|    0.366922|    0.031071|
|          89|           0|   -1.082630|    1.364664|    1.345524|    4.357826|    0.380258|    0.030483|
|          90|           0|   -1.084077|    1.333088|    1.307543|    4.360195|    0.393640|    0.029621|
+-----------------------------------------------------------------------+
|        File Writing Summary       |              Filename             |
+-----------------------------------------------------------------------+
|SU2 restart                        |solution_flow.dat                  |
|Paraview                           |flow.vtu                           |
|Paraview surface                   |surface_flow.vtu                   |
+-----------------------------------------------------------------------+

Writing the forces breakdown file (forces_breakdown.dat).
+-------------------------------------------------------------------------------------------------------+
|  Inner_Iter|   Time_Iter|    rms[Rho]|   rms[RhoU]|   rms[RhoV]|   rms[RhoE]|          CL|          CD|
+-------------------------------------------------------------------------------------------------------+
|          91|           0|   -1.091059|    1.303262|    1.270955|    4.356554|    0.406792|    0.028524|
|          92|           0|   -1.102943|    1.276565|    1.239905|    4.347604|    0.419459|    0.027231|
|          93|           0|   -1.119470|    1.254299|    1.217273|    4.333511|    0.431399|    0.025785|
|          94|           0|   -1.139607|    1.237360|    1.204889|    4.315318|    0.442399|    0.024223|
|          95|           0|   -1.162476|    1.226752|    1.202892|    4.293843|    0.452269|    0.022587|
|          96|           0|   -1.186780|    1.221805|    1.209684|    4.270241|    0.460848|    0.020913|
|          97|           0|   -1.211924|    1.221817|    1.221595|    4.244859|    0.468021|    0.019236|
|          98|           0|   -1.236966|    1.225102|    1.235813|    4.218489|    0.473715|    0.017590|
|          99|           0|   -1.260648|    1.230000|    1.250061|    4.192335|    0.477881|    0.016001|
|         100|           0|   -1.281952|    1.235677|    1.262610|    4.167585|    0.480512|    0.014495|
+-----------------------------------------------------------------------+
|        File Writing Summary       |              Filename             |
+-----------------------------------------------------------------------+
|SU2 restart                        |solution_flow.dat                  |
|Paraview                           |flow.vtu                           |
|Paraview surface                   |surface_flow.vtu                   |
+-----------------------------------------------------------------------+

Writing the forces breakdown file (forces_breakdown.dat).
+-------------------------------------------------------------------------------------------------------+
|  Inner_Iter|   Time_Iter|    rms[Rho]|   rms[RhoU]|   rms[RhoV]|   rms[RhoE]|          CL|          CD|
+-------------------------------------------------------------------------------------------------------+
|         101|           0|   -1.300172|    1.241313|    1.272608|    4.145144|    0.481635|    0.013094|
|         102|           0|   -1.315427|    1.245902|    1.279800|    4.125182|    0.481306|    0.011816|
|         103|           0|   -1.327905|    1.248867|    1.283903|    4.108079|    0.479611|    0.010674|
|         104|           0|   -1.337939|    1.250009|    1.284910|    4.094024|    0.476672|    0.009678|
|         105|           0|   -1.346914|    1.249193|    1.282737|    4.081827|    0.472628|    0.008836|
|         106|           0|   -1.355702|    1.246391|    1.277594|    4.070769|    0.467636|    0.008150|
|         107|           0|   -1.365197|    1.241627|    1.269751|    4.060061|    0.461860|    0.007621|
|         108|           0|   -1.376356|    1.234827|    1.259451|    4.048641|    0.455494|    0.007247|
|         109|           0|   -1.389271|    1.225872|    1.246568|    4.036440|    0.448724|    0.007025|
|         110|           0|   -1.403754|    1.214759|    1.231221|    4.023658|    0.441743|    0.006949|
+-----------------------------------------------------------------------+
|        File Writing Summary       |              Filename             |
+-----------------------------------------------------------------------+
|SU2 restart                        |solution_flow.dat                  |
|Paraview                           |flow.vtu                           |
|Paraview surface                   |surface_flow.vtu                   |
+-----------------------------------------------------------------------+

Writing the forces breakdown file (forces_breakdown.dat).
+-------------------------------------------------------------------------------------------------------+
|  Inner_Iter|   Time_Iter|    rms[Rho]|   rms[RhoU]|   rms[RhoV]|   rms[RhoE]|          CL|          CD|
+-------------------------------------------------------------------------------------------------------+
|         111|           0|   -1.419376|    1.201089|    1.213533|    4.010703|    0.434732|    0.007011|
|         112|           0|   -1.435996|    1.184896|    1.193721|    3.997531|    0.427878|    0.007201|
|         113|           0|   -1.452938|    1.166066|    1.172161|    3.984709|    0.421340|    0.007507|
|         114|           0|   -1.469878|    1.144836|    1.149318|    3.972324|    0.415277|    0.007919|
|         115|           0|   -1.486201|    1.121513|    1.125688|    3.960742|    0.409814|    0.008423|
|         116|           0|   -1.501749|    1.096513|    1.101966|    3.949734|    0.405073|    0.009006|
|         117|           0|   -1.516681|    1.070170|    1.079235|    3.938794|    0.401135|    0.009655|
|         118|           0|   -1.531093|    1.043686|    1.058245|    3.927652|    0.398080|    0.010355|
|         119|           0|   -1.545218|    1.018162|    1.039992|    3.915887|    0.395944|    0.011092|
|         120|           0|   -1.559393|    0.994638|    1.025320|    3.903064|    0.394767|    0.011854|
+-----------------------------------------------------------------------+
|        File Writing Summary       |              Filename             |
+-----------------------------------------------------------------------+
|SU2 restart                        |solution_flow.dat                  |
|Paraview                           |flow.vtu                           |
|Paraview surface                   |surface_flow.vtu                   |
+-----------------------------------------------------------------------+

Writing the forces breakdown file (forces_breakdown.dat).
+-------------------------------------------------------------------------------------------------------+
|  Inner_Iter|   Time_Iter|    rms[Rho]|   rms[RhoU]|   rms[RhoV]|   rms[RhoE]|          CL|          CD|
+-------------------------------------------------------------------------------------------------------+
|         121|           0|   -1.574104|    0.974440|    1.014892|    3.888731|    0.394536|    0.012625|
|         122|           0|   -1.590106|    0.958892|    1.008972|    3.872129|    0.395246|    0.013396|
|         123|           0|   -1.607244|    0.948951|    1.007288|    3.853454|    0.396844|    0.014152|
|         124|           0|   -1.625928|    0.944474|    1.009323|    3.832473|    0.399293|    0.014882|
|         125|           0|   -1.646404|    0.944474|    1.014086|    3.808955|    0.402506|    0.015574|
|         126|           0|   -1.668625|    0.947889|    1.020645|    3.782964|    0.406414|    0.016220|
|         127|           0|   -1.692340|    0.953408|    1.027986|    3.754831|    0.410905|    0.016808|
|         128|           0|   -1.717452|    0.959865|    1.035142|    3.724829|    0.415893|    0.017332|
|         129|           0|   -1.743918|    0.966274|    1.041585|    3.693098|    0.421256|    0.017782|
|         130|           0|   -1.771234|    0.971431|    1.046887|    3.660351|    0.426896|    0.018154|
+-----------------------------------------------------------------------+
|        File Writing Summary       |              Filename             |
+-----------------------------------------------------------------------+
|SU2 restart                        |solution_flow.dat                  |
|Paraview                           |flow.vtu                           |
|Paraview surface                   |surface_flow.vtu                   |
+-----------------------------------------------------------------------+

Writing the forces breakdown file (forces_breakdown.dat).
+-------------------------------------------------------------------------------------------------------+
|  Inner_Iter|   Time_Iter|    rms[Rho]|   rms[RhoU]|   rms[RhoV]|   rms[RhoE]|          CL|          CD|
+-------------------------------------------------------------------------------------------------------+
|         131|           0|   -1.798744|    0.974551|    1.050836|    3.627560|    0.432691|    0.018440|
|         132|           0|   -1.826067|    0.975446|    1.053225|    3.595513|    0.438546|    0.018639|
|         133|           0|   -1.851606|    0.973928|    1.053988|    3.566517|    0.444339|    0.018747|
|         134|           0|   -1.874436|    0.969905|    1.053050|    3.542088|    0.449987|    0.018763|
|         135|           0|   -1.893682|    0.963440|    1.050489|    3.523467|    0.455386|    0.018686|
|         136|           0|   -1.908441|    0.954117|    1.046392|    3.511521|    0.460468|    0.018519|
|         137|           0|   -1.919286|    0.942182|    1.040980|    3.505236|    0.465145|    0.018263|
|         138|           0|   -1.926797|    0.927916|    1.034386|    3.503278|    0.469374|    0.017925|
|         139|           0|   -1.931724|    0.911613|    1.026810|    3.504215|    0.473092|    0.017508|
|         140|           0|   -1.934687|    0.893552|    1.018506|    3.506884|    0.476276|    0.017021|
+-----------------------------------------------------------------------+
|        File Writing Summary       |              Filename             |
+-----------------------------------------------------------------------+
|SU2 restart                        |solution_flow.dat                  |
|Paraview                           |flow.vtu                           |
|Paraview surface                   |surface_flow.vtu                   |
+-----------------------------------------------------------------------+

Writing the forces breakdown file (forces_breakdown.dat).
+-------------------------------------------------------------------------------------------------------+
|  Inner_Iter|   Time_Iter|    rms[Rho]|   rms[RhoU]|   rms[RhoV]|   rms[RhoE]|          CL|          CD|
+-------------------------------------------------------------------------------------------------------+
|         141|           0|   -1.936609|    0.873640|    1.009739|    3.509940|    0.478887|    0.016469|
|         142|           0|   -1.938592|    0.852216|    1.000807|    3.512136|    0.480928|    0.015865|
|         143|           0|   -1.941514|    0.830202|    0.991923|    3.512553|    0.482388|    0.015215|
|         144|           0|   -1.945760|    0.808220|    0.983363|    3.510878|    0.483294|    0.014533|
|         145|           0|   -1.951694|    0.787239|    0.975315|    3.506941|    0.483658|    0.013829|
|         146|           0|   -1.959624|    0.768183|    0.967837|    3.500495|    0.483522|    0.013114|
|         147|           0|   -1.969639|    0.751961|    0.961055|    3.491617|    0.482914|    0.012400|
|         148|           0|   -1.981733|    0.739275|    0.955061|    3.480347|    0.481891|    0.011701|
|         149|           0|   -1.996166|    0.730535|    0.949841|    3.466507|    0.480497|    0.011024|
|         150|           0|   -2.012686|    0.725721|    0.945342|    3.450367|    0.478803|    0.010384|
+-----------------------------------------------------------------------+
|        File Writing Summary       |              Filename             |
+-----------------------------------------------------------------------+
|SU2 restart                        |solution_flow.dat                  |
|Paraview                           |flow.vtu                           |
|Paraview surface                   |surface_flow.vtu                   |
+-----------------------------------------------------------------------+

Writing the forces breakdown file (forces_breakdown.dat).
+-------------------------------------------------------------------------------------------------------+
|  Inner_Iter|   Time_Iter|    rms[Rho]|   rms[RhoU]|   rms[RhoV]|   rms[RhoE]|          CL|          CD|
+-------------------------------------------------------------------------------------------------------+
|         151|           0|   -2.031130|    0.724712|    0.941475|    3.432139|    0.476857|    0.009787|
|         152|           0|   -2.051214|    0.726934|    0.938066|    3.412169|    0.474732|    0.009245|
|         153|           0|   -2.072958|    0.731615|    0.934940|    3.390383|    0.472484|    0.008766|
|         154|           0|   -2.096056|    0.738027|    0.931986|    3.366998|    0.470186|    0.008357|
|         155|           0|   -2.119773|    0.745419|    0.929043|    3.342631|    0.467887|    0.008023|
|         156|           0|   -2.143746|    0.753189|    0.925984|    3.317546|    0.465650|    0.007770|
|         157|           0|   -2.167240|    0.760924|    0.922731|    3.292330|    0.463515|    0.007597|
|         158|           0|   -2.189485|    0.768241|    0.919202|    3.267708|    0.461539|    0.007510|
|         159|           0|   -2.209982|    0.774861|    0.915374|    3.244050|    0.459753|    0.007504|
|         160|           0|   -2.227374|    0.780651|    0.911182|    3.222803|    0.458203|    0.007579|
+-----------------------------------------------------------------------+
|        File Writing Summary       |              Filename             |
+-----------------------------------------------------------------------+
|SU2 restart                        |solution_flow.dat                  |
|Paraview                           |flow.vtu                           |
|Paraview surface                   |surface_flow.vtu                   |
+-----------------------------------------------------------------------+

Writing the forces breakdown file (forces_breakdown.dat).
+-------------------------------------------------------------------------------------------------------+
|  Inner_Iter|   Time_Iter|    rms[Rho]|   rms[RhoU]|   rms[RhoV]|   rms[RhoE]|          CL|          CD|
+-------------------------------------------------------------------------------------------------------+
|         161|           0|   -2.241168|    0.785522|    0.906564|    3.204639|    0.456910|    0.007729|
|         162|           0|   -2.251187|    0.789385|    0.901467|    3.189953|    0.455906|    0.007952|
|         163|           0|   -2.256822|    0.792200|    0.895856|    3.179866|    0.455195|    0.008237|
|         164|           0|   -2.258488|    0.793952|    0.889789|    3.174300|    0.454799|    0.008582|
|         165|           0|   -2.257007|    0.794676|    0.883244|    3.172806|    0.454710|    0.008972|
|         166|           0|   -2.252853|    0.794510|    0.876299|    3.175297|    0.454934|    0.009403|
|         167|           0|   -2.246624|    0.793546|    0.868983|    3.181213|    0.455451|    0.009860|
|         168|           0|   -2.239483|    0.791986|    0.861320|    3.189294|    0.456263|    0.010336|
|         169|           0|   -2.231924|    0.789899|    0.853306|    3.198657|    0.457335|    0.010819|
|         170|           0|   -2.224953|    0.787354|    0.844962|    3.207989|    0.458661|    0.011299|
+-----------------------------------------------------------------------+
|        File Writing Summary       |              Filename             |
+-----------------------------------------------------------------------+
|SU2 restart                        |solution_flow.dat                  |
|Paraview                           |flow.vtu                           |
|Paraview surface                   |surface_flow.vtu                   |
+-----------------------------------------------------------------------+

Writing the forces breakdown file (forces_breakdown.dat).
+-------------------------------------------------------------------------------------------------------+
|  Inner_Iter|   Time_Iter|    rms[Rho]|   rms[RhoU]|   rms[RhoV]|   rms[RhoE]|          CL|          CD|
+-------------------------------------------------------------------------------------------------------+
|         171|           0|   -2.219222|    0.784503|    0.836377|    3.216303|    0.460194|    0.011766|
|         172|           0|   -2.215116|    0.781504|    0.827601|    3.223040|    0.461923|    0.012212|
|         173|           0|   -2.212499|    0.778542|    0.818718|    3.228449|    0.463799|    0.012625|
|         174|           0|   -2.211541|    0.775774|    0.809807|    3.232341|    0.465803|    0.012999|
|         175|           0|   -2.212165|    0.773339|    0.800910|    3.234702|    0.467886|    0.013325|
|         176|           0|   -2.214255|    0.771255|    0.792067|    3.235484|    0.470030|    0.013600|
|         177|           0|   -2.218073|    0.769670|    0.783347|    3.234569|    0.472181|    0.013818|
|         178|           0|   -2.223499|    0.768624|    0.774756|    3.232080|    0.474322|    0.013977|
|         179|           0|   -2.230212|    0.768002|    0.766341|    3.228041|    0.476404|    0.014073|
|         180|           0|   -2.237753|    0.767795|    0.758122|    3.223016|    0.478415|    0.014110|
+-----------------------------------------------------------------------+
|        File Writing Summary       |              Filename             |
+-----------------------------------------------------------------------+
|SU2 restart                        |solution_flow.dat                  |
|Paraview                           |flow.vtu                           |
|Paraview surface                   |surface_flow.vtu                   |
+-----------------------------------------------------------------------+

Writing the forces breakdown file (forces_breakdown.dat).
+-------------------------------------------------------------------------------------------------------+
|  Inner_Iter|   Time_Iter|    rms[Rho]|   rms[RhoU]|   rms[RhoV]|   rms[RhoE]|          CL|          CD|
+-------------------------------------------------------------------------------------------------------+
|         181|           0|   -2.245505|    0.768162|    0.750034|    3.217890|    0.480313|    0.014085|
|         182|           0|   -2.252758|    0.768880|    0.742117|    3.213221|    0.482089|    0.014002|
|         183|           0|   -2.259490|    0.770116|    0.734548|    3.209208|    0.483707|    0.013863|
|         184|           0|   -2.263070|    0.771573|    0.726604|    3.207138|    0.485162|    0.013676|
|         185|           0|   -2.266212|    0.772937|    0.719256|    3.205420|    0.486431|    0.013443|
|         186|           0|   -2.267997|    0.774255|    0.711977|    3.204605|    0.487522|    0.013173|
|         187|           0|   -2.270141|    0.775017|    0.704774|    3.202246|    0.488416|    0.012871|
|         188|           0|   -2.270354|    0.775831|    0.697647|    3.201087|    0.489125|    0.012547|
|         189|           0|   -2.268995|    0.776680|    0.690745|    3.200875|    0.489644|    0.012206|
|         190|           0|   -2.267173|    0.777531|    0.684118|    3.200650|    0.489992|    0.011859|
+-----------------------------------------------------------------------+
|        File Writing Summary       |              Filename             |
+-----------------------------------------------------------------------+
|SU2 restart                        |solution_flow.dat                  |
|Paraview                           |flow.vtu                           |
|Paraview surface                   |surface_flow.vtu                   |
+-----------------------------------------------------------------------+

Writing the forces breakdown file (forces_breakdown.dat).
+-------------------------------------------------------------------------------------------------------+
|  Inner_Iter|   Time_Iter|    rms[Rho]|   rms[RhoU]|   rms[RhoV]|   rms[RhoE]|          CL|          CD|
+-------------------------------------------------------------------------------------------------------+
|         191|           0|   -2.265139|    0.778357|    0.677854|    3.200396|    0.490165|    0.011509|
|         192|           0|   -2.263250|    0.779136|    0.671920|    3.199869|    0.490190|    0.011168|
|         193|           0|   -2.262586|    0.779824|    0.666176|    3.198044|    0.490070|    0.010840|
|         194|           0|   -2.263224|    0.780268|    0.660553|    3.194886|    0.489835|    0.010533|
|         195|           0|   -2.266264|    0.780093|    0.654908|    3.189245|    0.489488|    0.010250|
|         196|           0|   -2.271095|    0.779391|    0.649144|    3.181765|    0.489059|    0.009998|
|         197|           0|   -2.276948|    0.778059|    0.643025|    3.173462|    0.488559|    0.009778|
|         198|           0|   -2.283825|    0.776044|    0.636443|    3.164367|    0.488019|    0.009595|
|         199|           0|   -2.290976|    0.773457|    0.629103|    3.155536|    0.487449|    0.009448|
|         200|           0|   -2.297991|    0.770340|    0.620909|    3.147794|    0.486879|    0.009340|
+-----------------------------------------------------------------------+
|        File Writing Summary       |              Filename             |
+-----------------------------------------------------------------------+
|SU2 restart                        |solution_flow.dat                  |
|Paraview                           |flow.vtu                           |
|Paraview surface                   |surface_flow.vtu                   |
+-----------------------------------------------------------------------+

Writing the forces breakdown file (forces_breakdown.dat).
+-------------------------------------------------------------------------------------------------------+
|  Inner_Iter|   Time_Iter|    rms[Rho]|   rms[RhoU]|   rms[RhoV]|   rms[RhoE]|          CL|          CD|
+-------------------------------------------------------------------------------------------------------+
|         201|           0|   -2.304508|    0.766635|    0.611725|    3.141636|    0.486319|    0.009268|
|         202|           0|   -2.310078|    0.762287|    0.601389|    3.137495|    0.485797|    0.009233|
|         203|           0|   -2.314220|    0.757150|    0.589749|    3.135745|    0.485318|    0.009231|
|         204|           0|   -2.317119|    0.751225|    0.576728|    3.135950|    0.484906|    0.009260|
|         205|           0|   -2.317110|    0.744645|    0.562275|    3.139589|    0.484565|    0.009316|
|         206|           0|   -2.314895|    0.737430|    0.546443|    3.145541|    0.484313|    0.009396|
|         207|           0|   -2.311212|    0.729638|    0.529419|    3.152912|    0.484145|    0.009493|
|         208|           0|   -2.306140|    0.721341|    0.511348|    3.161320|    0.484078|    0.009606|
|         209|           0|   -2.300082|    0.712749|    0.492639|    3.170183|    0.484105|    0.009727|
|         210|           0|   -2.293837|    0.703976|    0.473837|    3.178653|    0.484235|    0.009853|
+-----------------------------------------------------------------------+
|        File Writing Summary       |              Filename             |
+-----------------------------------------------------------------------+
|SU2 restart                        |solution_flow.dat                  |
|Paraview                           |flow.vtu                           |
|Paraview surface                   |surface_flow.vtu                   |
+-----------------------------------------------------------------------+

Writing the forces breakdown file (forces_breakdown.dat).
+-------------------------------------------------------------------------------------------------------+
|  Inner_Iter|   Time_Iter|    rms[Rho]|   rms[RhoU]|   rms[RhoV]|   rms[RhoE]|          CL|          CD|
+-------------------------------------------------------------------------------------------------------+
|         211|           0|   -2.288025|    0.695268|    0.455554|    3.186060|    0.484453|    0.009978|
|         212|           0|   -2.283786|    0.686896|    0.438580|    3.191439|    0.484771|    0.010100|
|         213|           0|   -2.281155|    0.679081|    0.423647|    3.194737|    0.485168|    0.010212|
|         214|           0|   -2.280837|    0.671988|    0.411453|    3.195262|    0.485650|    0.010313|
|         215|           0|   -2.282880|    0.665741|    0.402454|    3.193055|    0.486195|    0.010398|
|         216|           0|   -2.287008|    0.660421|    0.396833|    3.188452|    0.486805|    0.010466|
|         217|           0|   -2.294017|    0.656047|    0.394389|    3.180696|    0.487454|    0.010513|
|         218|           0|   -2.304008|    0.652447|    0.394565|    3.169593|    0.488144|    0.010541|
|         219|           0|   -2.316818|    0.649506|    0.396690|    3.155328|    0.488849|    0.010546|
|         220|           0|   -2.331885|    0.647083|    0.399980|    3.138521|    0.489571|    0.010531|
+-----------------------------------------------------------------------+
|        File Writing Summary       |              Filename             |
+-----------------------------------------------------------------------+
|SU2 restart                        |solution_flow.dat                  |
|Paraview                           |flow.vtu                           |
|Paraview surface                   |surface_flow.vtu                   |
+-----------------------------------------------------------------------+

Writing the forces breakdown file (forces_breakdown.dat).
+-------------------------------------------------------------------------------------------------------+
|  Inner_Iter|   Time_Iter|    rms[Rho]|   rms[RhoU]|   rms[RhoV]|   rms[RhoE]|          CL|          CD|
+-------------------------------------------------------------------------------------------------------+
|         221|           0|   -2.348646|    0.644797|    0.403540|    3.119559|    0.490284|    0.010494|
|         222|           0|   -2.366505|    0.642400|    0.406606|    3.098960|    0.490991|    0.010440|
|         223|           0|   -2.384525|    0.639612|    0.408486|    3.077762|    0.491665|    0.010368|
|         224|           0|   -2.401694|    0.636320|    0.408635|    3.057233|    0.492310|    0.010283|
|         225|           0|   -2.417129|    0.632317|    0.406608|    3.038452|    0.492906|    0.010184|
|         226|           0|   -2.429758|    0.627393|    0.402037|    3.022778|    0.493457|    0.010079|
|         227|           0|   -2.438703|    0.621779|    0.394709|    3.011722|    0.493945|    0.009968|
|         228|           0|   -2.443011|    0.615798|    0.384572|    3.006300|    0.494377|    0.009856|
|         229|           0|   -2.442897|    0.608028|    0.371290|    3.005948|    0.494738|    0.009745|
|         230|           0|   -2.439009|    0.598359|    0.354648|    3.010202|    0.495040|    0.009641|
+-----------------------------------------------------------------------+
|        File Writing Summary       |              Filename             |
+-----------------------------------------------------------------------+
|SU2 restart                        |solution_flow.dat                  |
|Paraview                           |flow.vtu                           |
|Paraview surface                   |surface_flow.vtu                   |
+-----------------------------------------------------------------------+

Writing the forces breakdown file (forces_breakdown.dat).
+-------------------------------------------------------------------------------------------------------+
|  Inner_Iter|   Time_Iter|    rms[Rho]|   rms[RhoU]|   rms[RhoV]|   rms[RhoE]|          CL|          CD|
+-------------------------------------------------------------------------------------------------------+
|         231|           0|   -2.432168|    0.587057|    0.334597|    3.018249|    0.495271|    0.009543|
|         232|           0|   -2.423069|    0.574459|    0.311184|    3.029335|    0.495445|    0.009458|
|         233|           0|   -2.412819|    0.560849|    0.284755|    3.042016|    0.495549|    0.009385|
|         234|           0|   -2.402693|    0.546440|    0.255618|    3.054797|    0.495605|    0.009328|
|         235|           0|   -2.393724|    0.531597|    0.224435|    3.066424|    0.495603|    0.009287|
|         236|           0|   -2.386666|    0.516662|    0.192375|    3.075980|    0.495563|    0.009265|
|         237|           0|   -2.382039|    0.501880|    0.161162|    3.082887|    0.495478|    0.009260|
|         238|           0|   -2.380110|    0.487729|    0.133215|    3.086871|    0.495371|    0.009274|
|         239|           0|   -2.381080|    0.474605|    0.111402|    3.087679|    0.495234|    0.009304|
|         240|           0|   -2.385125|    0.462837|    0.098208|    3.085098|    0.495093|    0.009353|
+-----------------------------------------------------------------------+
|        File Writing Summary       |              Filename             |
+-----------------------------------------------------------------------+
|SU2 restart                        |solution_flow.dat                  |
|Paraview                           |flow.vtu                           |
|Paraview surface                   |surface_flow.vtu                   |
+-----------------------------------------------------------------------+

Writing the forces breakdown file (forces_breakdown.dat).
+-------------------------------------------------------------------------------------------------------+
|  Inner_Iter|   Time_Iter|    rms[Rho]|   rms[RhoU]|   rms[RhoV]|   rms[RhoE]|          CL|          CD|
+-------------------------------------------------------------------------------------------------------+
|         241|           0|   -2.392224|    0.452598|    0.094937|    3.079125|    0.494940|    0.009415|
|         242|           0|   -2.402717|    0.444007|    0.101005|    3.069387|    0.494799|    0.009492|
|         243|           0|   -2.416166|    0.437159|    0.114333|    3.056292|    0.494664|    0.009579|
|         244|           0|   -2.432429|    0.431885|    0.132129|    3.039875|    0.494558|    0.009675|
|         245|           0|   -2.451113|    0.427813|    0.151774|    3.020440|    0.494473|    0.009776|
|         246|           0|   -2.471778|    0.424643|    0.171236|    2.998358|    0.494429|    0.009882|
|         247|           0|   -2.493637|    0.421918|    0.189011|    2.974247|    0.494418|    0.009987|
|         248|           0|   -2.515941|    0.419344|    0.204164|    2.948788|    0.494457|    0.010090|
|         249|           0|   -2.537615|    0.416565|    0.216146|    2.923079|    0.494533|    0.010186|
|         250|           0|   -2.557356|    0.413268|    0.224624|    2.898610|    0.494667|    0.010276|
+-----------------------------------------------------------------------+
|        File Writing Summary       |              Filename             |
+-----------------------------------------------------------------------+
|SU2 restart                        |solution_flow.dat                  |
|Paraview                           |flow.vtu                           |
|Paraview surface                   |surface_flow.vtu                   |
+-----------------------------------------------------------------------+

Writing the forces breakdown file (forces_breakdown.dat).
+-------------------------------------------------------------------------------------------------------+
|  Inner_Iter|   Time_Iter|    rms[Rho]|   rms[RhoU]|   rms[RhoV]|   rms[RhoE]|          CL|          CD|
+-------------------------------------------------------------------------------------------------------+
|         251|           0|   -2.573677|    0.409220|    0.229477|    2.877216|    0.494842|    0.010352|
|         252|           0|   -2.585407|    0.404122|    0.230588|    2.860614|    0.495073|    0.010417|
|         253|           0|   -2.591661|    0.397804|    0.227917|    2.850390|    0.495341|    0.010466|
|         254|           0|   -2.592310|    0.390110|    0.221458|    2.847235|    0.495662|    0.010499|
|         255|           0|   -2.588145|    0.381069|    0.211204|    2.850595|    0.496014|    0.010513|
|         256|           0|   -2.580589|    0.370752|    0.197161|    2.858925|    0.496407|    0.010510|
|         257|           0|   -2.571043|    0.359091|    0.179345|    2.870417|    0.496821|    0.010486|
|         258|           0|   -2.560811|    0.346249|    0.157834|    2.883360|    0.497268|    0.010445|
|         259|           0|   -2.551120|    0.332345|    0.132672|    2.896159|    0.497724|    0.010384|
|         260|           0|   -2.542706|    0.317728|    0.103995|    2.907844|    0.498197|    0.010307|
+-----------------------------------------------------------------------+
|        File Writing Summary       |              Filename             |
+-----------------------------------------------------------------------+
|SU2 restart                        |solution_flow.dat                  |
|Paraview                           |flow.vtu                           |
|Paraview surface                   |surface_flow.vtu                   |
+-----------------------------------------------------------------------+

Writing the forces breakdown file (forces_breakdown.dat).
+-------------------------------------------------------------------------------------------------------+
|  Inner_Iter|   Time_Iter|    rms[Rho]|   rms[RhoU]|   rms[RhoV]|   rms[RhoE]|          CL|          CD|
+-------------------------------------------------------------------------------------------------------+
|         261|           0|   -2.536172|    0.302782|    0.072159|    2.917638|    0.498664|    0.010213|
|         262|           0|   -2.532006|    0.287943|    0.037708|    2.924943|    0.499136|    0.010106|
|         263|           0|   -2.530619|    0.273658|    0.001616|    2.929282|    0.499588|    0.009983|
|         264|           0|   -2.532190|    0.260405|   -0.034654|    2.930443|    0.500030|    0.009853|
|         265|           0|   -2.536803|    0.248577|   -0.068977|    2.928280|    0.500438|    0.009712|
|         266|           0|   -2.544449|    0.238543|   -0.098645|    2.922754|    0.500824|    0.009567|
|         267|           0|   -2.555113|    0.230511|   -0.120822|    2.913843|    0.501166|    0.009418|
|         268|           0|   -2.568674|    0.224525|   -0.133534|    2.901671|    0.501474|    0.009271|
|         269|           0|   -2.585111|    0.220466|   -0.136526|    2.886180|    0.501730|    0.009124|
|         270|           0|   -2.603954|    0.218033|   -0.131156|    2.867724|    0.501947|    0.008984|
+-----------------------------------------------------------------------+
|        File Writing Summary       |              Filename             |
+-----------------------------------------------------------------------+
|SU2 restart                        |solution_flow.dat                  |
|Paraview                           |flow.vtu                           |
|Paraview surface                   |surface_flow.vtu                   |
+-----------------------------------------------------------------------+

Writing the forces breakdown file (forces_breakdown.dat).
+-------------------------------------------------------------------------------------------------------+
|  Inner_Iter|   Time_Iter|    rms[Rho]|   rms[RhoU]|   rms[RhoV]|   rms[RhoE]|          CL|          CD|
+-------------------------------------------------------------------------------------------------------+
|         271|           0|   -2.624885|    0.216860|   -0.119824|    2.846482|    0.502107|    0.008849|
|         272|           0|   -2.647128|    0.216572|   -0.105266|    2.823074|    0.502225|    0.008726|
|         273|           0|   -2.670044|    0.216715|   -0.089779|    2.797934|    0.502285|    0.008612|
|         274|           0|   -2.692747|    0.216869|   -0.075037|    2.771780|    0.502308|    0.008514|
|         275|           0|   -2.714201|    0.216649|   -0.062202|    2.745536|    0.502274|    0.008428|
|         276|           0|   -2.733239|    0.215743|   -0.051960|    2.720426|    0.502208|    0.008360|
|         277|           0|   -2.748880|    0.213926|   -0.044662|    2.697752|    0.502094|    0.008307|
|         278|           0|   -2.760852|    0.211137|   -0.040452|    2.678311|    0.501954|    0.008272|
|         279|           0|   -2.768332|    0.207092|   -0.039442|    2.663626|    0.501776|    0.008253|
|         280|           0|   -2.771605|    0.201681|   -0.041639|    2.654186|    0.501584|    0.008252|
+-----------------------------------------------------------------------+
|        File Writing Summary       |              Filename             |
+-----------------------------------------------------------------------+
|SU2 restart                        |solution_flow.dat                  |
|Paraview                           |flow.vtu                           |
|Paraview surface                   |surface_flow.vtu                   |
+-----------------------------------------------------------------------+

Writing the forces breakdown file (forces_breakdown.dat).
+-------------------------------------------------------------------------------------------------------+
|  Inner_Iter|   Time_Iter|    rms[Rho]|   rms[RhoU]|   rms[RhoV]|   rms[RhoE]|          CL|          CD|
+-------------------------------------------------------------------------------------------------------+
|         281|           0|   -2.771265|    0.194858|   -0.046901|    2.649932|    0.501363|    0.008266|
|         282|           0|   -2.768386|    0.186697|   -0.055094|    2.650037|    0.501141|    0.008298|
|         283|           0|   -2.764075|    0.177234|   -0.066072|    2.653369|    0.500905|    0.008342|
|         284|           0|   -2.759289|    0.166492|   -0.079634|    2.658692|    0.500681|    0.008402|
|         285|           0|   -2.754906|    0.154552|   -0.095562|    2.664736|    0.500455|    0.008472|
|         286|           0|   -2.751557|    0.141516|   -0.113584|    2.670535|    0.500255|    0.008553|
|         287|           0|   -2.749646|    0.127458|   -0.133375|    2.675437|    0.500067|    0.008641|
|         288|           0|   -2.749406|    0.112517|   -0.154450|    2.679042|    0.499915|    0.008737|
|         289|           0|   -2.750753|    0.096892|   -0.176284|    2.681331|    0.499785|    0.008836|
|         290|           0|   -2.753801|    0.080789|   -0.198226|    2.682035|    0.499700|    0.008938|
+-----------------------------------------------------------------------+
|        File Writing Summary       |              Filename             |
+-----------------------------------------------------------------------+
|SU2 restart                        |solution_flow.dat                  |
|Paraview                           |flow.vtu                           |
|Paraview surface                   |surface_flow.vtu                   |
+-----------------------------------------------------------------------+

Writing the forces breakdown file (forces_breakdown.dat).
+-------------------------------------------------------------------------------------------------------+
|  Inner_Iter|   Time_Iter|    rms[Rho]|   rms[RhoU]|   rms[RhoV]|   rms[RhoE]|          CL|          CD|
+-------------------------------------------------------------------------------------------------------+
|         291|           0|   -2.758788|    0.064463|   -0.219506|    2.680807|    0.499645|    0.009040|
|         292|           0|   -2.765528|    0.048135|   -0.239223|    2.677765|    0.499642|    0.009142|
|         293|           0|   -2.773741|    0.032090|   -0.256583|    2.673165|    0.499672|    0.009239|
|         294|           0|   -2.783285|    0.016622|   -0.270724|    2.667086|    0.499757|    0.009333|
|         295|           0|   -2.793838|    0.002031|   -0.280944|    2.659814|    0.499874|    0.009419|
|         296|           0|   -2.805007|   -0.011384|   -0.286912|    2.651672|    0.500044|    0.009498|
|         297|           0|   -2.816428|   -0.023403|   -0.288701|    2.642929|    0.500243|    0.009567|
|         298|           0|   -2.827625|   -0.033839|   -0.286705|    2.633963|    0.500491|    0.009627|
|         299|           0|   -2.838300|   -0.042547|   -0.281610|    2.624974|    0.500766|    0.009675|
|         300|           0|   -2.848038|   -0.049449|   -0.274150|    2.616295|    0.501082|    0.009713|
+-----------------------------------------------------------------------+
|        File Writing Summary       |              Filename             |
+-----------------------------------------------------------------------+
|SU2 restart                        |solution_flow.dat                  |
|Paraview                           |flow.vtu                           |
|Paraview surface                   |surface_flow.vtu                   |
+-----------------------------------------------------------------------+

Writing the forces breakdown file (forces_breakdown.dat).
+-------------------------------------------------------------------------------------------------------+
|  Inner_Iter|   Time_Iter|    rms[Rho]|   rms[RhoU]|   rms[RhoV]|   rms[RhoE]|          CL|          CD|
+-------------------------------------------------------------------------------------------------------+
|         301|           0|   -2.856558|   -0.054595|   -0.265092|    2.608144|    0.501413|    0.009737|
|         302|           0|   -2.863650|   -0.058063|   -0.255106|    2.600683|    0.501779|    0.009751|
|         303|           0|   -2.869289|   -0.059967|   -0.244786|    2.593981|    0.502150|    0.009751|
|         304|           0|   -2.873577|   -0.060511|   -0.234585|    2.587995|    0.502543|    0.009741|
|         305|           0|   -2.876662|   -0.059925|   -0.224828|    2.582672|    0.502933|    0.009719|
|         306|           0|   -2.878792|   -0.058429|   -0.215779|    2.577874|    0.503335|    0.009688|
|         307|           0|   -2.880273|   -0.056239|   -0.207626|    2.573454|    0.503725|    0.009645|
|         308|           0|   -2.881376|   -0.053593|   -0.200488|    2.569290|    0.504115|    0.009596|
|         309|           0|   -2.882480|   -0.050721|   -0.194465|    2.565131|    0.504478|    0.009537|
|         310|           0|   -2.883798|   -0.047814|   -0.189653|    2.560891|    0.504832|    0.009472|
+-----------------------------------------------------------------------+
|        File Writing Summary       |              Filename             |
+-----------------------------------------------------------------------+
|SU2 restart                        |solution_flow.dat                  |
|Paraview                           |flow.vtu                           |
|Paraview surface                   |surface_flow.vtu                   |
+-----------------------------------------------------------------------+

Writing the forces breakdown file (forces_breakdown.dat).
+-------------------------------------------------------------------------------------------------------+
|  Inner_Iter|   Time_Iter|    rms[Rho]|   rms[RhoU]|   rms[RhoV]|   rms[RhoE]|          CL|          CD|
+-------------------------------------------------------------------------------------------------------+
|         311|           0|   -2.885520|   -0.045053|   -0.186123|    2.556495|    0.505153|    0.009401|
|         312|           0|   -2.887767|   -0.042605|   -0.183950|    2.551917|    0.505454|    0.009326|
|         313|           0|   -2.890621|   -0.040620|   -0.183185|    2.547150|    0.505714|    0.009247|
|         314|           0|   -2.894089|   -0.039217|   -0.183881|    2.542259|    0.505954|    0.009166|
|         315|           0|   -2.898262|   -0.038496|   -0.186092|    2.537237|    0.506149|    0.009083|
|         316|           0|   -2.903046|   -0.038513|   -0.189856|    2.532258|    0.506317|    0.009002|
|         317|           0|   -2.908294|   -0.039323|   -0.195224|    2.527457|    0.506437|    0.008921|
|         318|           0|   -2.913778|   -0.040989|   -0.202219|    2.523082|    0.506531|    0.008844|
|         319|           0|   -2.919369|   -0.043541|   -0.210819|    2.519238|    0.506579|    0.008768|
|         320|           0|   -2.924813|   -0.046982|   -0.221005|    2.516123|    0.506601|    0.008699|
+-----------------------------------------------------------------------+
|        File Writing Summary       |              Filename             |
+-----------------------------------------------------------------------+
|SU2 restart                        |solution_flow.dat                  |
|Paraview                           |flow.vtu                           |
|Paraview surface                   |surface_flow.vtu                   |
+-----------------------------------------------------------------------+

Writing the forces breakdown file (forces_breakdown.dat).
+-------------------------------------------------------------------------------------------------------+
|  Inner_Iter|   Time_Iter|    rms[Rho]|   rms[RhoU]|   rms[RhoV]|   rms[RhoE]|          CL|          CD|
+-------------------------------------------------------------------------------------------------------+
|         321|           0|   -2.929860|   -0.051203|   -0.232735|    2.513936|    0.506581|    0.008632|
|         322|           0|   -2.934257|   -0.056121|   -0.245909|    2.512814|    0.506543|    0.008573|
|         323|           0|   -2.938022|   -0.061616|   -0.260355|    2.512558|    0.506471|    0.008518|
|         324|           0|   -2.941132|   -0.067527|   -0.275811|    2.513013|    0.506383|    0.008471|
|         325|           0|   -2.943600|   -0.073684|   -0.291864|    2.514005|    0.506266|    0.008429|
|         326|           0|   -2.945460|   -0.079849|   -0.308003|    2.515337|    0.506144|    0.008395|
|         327|           0|   -2.946862|   -0.085808|   -0.323533|    2.516704|    0.506002|    0.008367|
|         328|           0|   -2.947916|   -0.091345|   -0.337699|    2.517872|    0.505860|    0.008347|
|         329|           0|   -2.948879|   -0.096242|   -0.349670|    2.518504|    0.505705|    0.008333|
|         330|           0|   -2.949962|   -0.100323|   -0.358631|    2.518335|    0.505560|    0.008326|
+-----------------------------------------------------------------------+
|        File Writing Summary       |              Filename             |
+-----------------------------------------------------------------------+
|SU2 restart                        |solution_flow.dat                  |
|Paraview                           |flow.vtu                           |
|Paraview surface                   |surface_flow.vtu                   |
+-----------------------------------------------------------------------+

Writing the forces breakdown file (forces_breakdown.dat).
+-------------------------------------------------------------------------------------------------------+
|  Inner_Iter|   Time_Iter|    rms[Rho]|   rms[RhoU]|   rms[RhoV]|   rms[RhoE]|          CL|          CD|
+-------------------------------------------------------------------------------------------------------+
|         331|           0|   -2.951363|   -0.103458|   -0.363966|    2.517137|    0.505409|    0.008324|
|         332|           0|   -2.953230|   -0.105576|   -0.365343|    2.514740|    0.505274|    0.008329|
|         333|           0|   -2.955692|   -0.106664|   -0.362791|    2.511013|    0.505141|    0.008339|
|         334|           0|   -2.958842|   -0.106772|   -0.356742|    2.505888|    0.505033|    0.008355|
|         335|           0|   -2.962820|   -0.106057|   -0.347869|    2.499247|    0.504933|    0.008373|
|         336|           0|   -2.967573|   -0.104736|   -0.337027|    2.491163|    0.504860|    0.008397|
|         337|           0|   -2.973094|   -0.103060|   -0.325107|    2.481702|    0.504800|    0.008423|
|         338|           0|   -2.979265|   -0.101319|   -0.312939|    2.471041|    0.504770|    0.008454|
|         339|           0|   -2.986000|   -0.099775|   -0.301221|    2.459382|    0.504757|    0.008484|
|         340|           0|   -2.993061|   -0.098694|   -0.290523|    2.447116|    0.504778|    0.008519|
+-----------------------------------------------------------------------+
|        File Writing Summary       |              Filename             |
+-----------------------------------------------------------------------+
|SU2 restart                        |solution_flow.dat                  |
|Paraview                           |flow.vtu                           |
|Paraview surface                   |surface_flow.vtu                   |
+-----------------------------------------------------------------------+

Writing the forces breakdown file (forces_breakdown.dat).
+-------------------------------------------------------------------------------------------------------+
|  Inner_Iter|   Time_Iter|    rms[Rho]|   rms[RhoU]|   rms[RhoV]|   rms[RhoE]|          CL|          CD|
+-------------------------------------------------------------------------------------------------------+
|         341|           0|   -3.000155|   -0.098367|   -0.281299|    2.434723|    0.504812|    0.008553|
|         342|           0|   -3.007021|   -0.099057|   -0.273876|    2.422718|    0.504879|    0.008589|
|         343|           0|   -3.013256|   -0.100901|   -0.268499|    2.411870|    0.504958|    0.008623|
|         344|           0|   -3.018639|   -0.104062|   -0.265337|    2.402727|    0.505068|    0.008658|
[...]
|         405|           0|   -3.209665|   -0.361011|   -0.438416|    2.209984|    0.509674|    0.008440|
|         406|           0|   -3.206786|   -0.374852|   -0.451206|    2.217791|    0.509743|    0.008454|
|         407|           0|   -3.203240|   -0.390640|   -0.465897|    2.226899|    0.509799|    0.008465|
|         408|           0|   -3.199618|   -0.408202|   -0.482100|    2.236283|    0.509864|    0.008476|
|         409|           0|   -3.196056|   -0.427194|   -0.499402|    2.245509|    0.509918|    0.008485|
|         410|           0|   -3.192829|   -0.447200|   -0.517196|    2.254045|    0.509979|    0.008495|
+-----------------------------------------------------------------------+
|        File Writing Summary       |              Filename             |
+-----------------------------------------------------------------------+
|SU2 restart                        |solution_flow.dat                  |
|Paraview                           |flow.vtu                           |
|Paraview surface                   |surface_flow.vtu                   |
+-----------------------------------------------------------------------+

Writing the forces breakdown file (forces_breakdown.dat).
+-------------------------------------------------------------------------------------------------------+
|  Inner_Iter|   Time_Iter|    rms[Rho]|   rms[RhoU]|   rms[RhoV]|   rms[RhoE]|          CL|          CD|
+-------------------------------------------------------------------------------------------------------+
|         411|           0|   -3.190524|   -0.467663|   -0.534732|    2.261138|    0.510031|    0.008501|
|         412|           0|   -3.189311|   -0.487837|   -0.551066|    2.266516|    0.510091|    0.008508|
|         413|           0|   -3.189392|   -0.506835|   -0.565187|    2.269924|    0.510141|    0.008512|
|         414|           0|   -3.190761|   -0.523675|   -0.576124|    2.271332|    0.510197|    0.008515|
|         415|           0|   -3.193482|   -0.537377|   -0.583131|    2.270652|    0.510243|    0.008515|
|         416|           0|   -3.197676|   -0.547148|   -0.585814|    2.267752|    0.510296|    0.008515|
|         417|           0|   -3.203289|   -0.552499|   -0.584269|    2.262683|    0.510335|    0.008512|
|         418|           0|   -3.210241|   -0.553397|   -0.579011|    2.255528|    0.510385|    0.008509|
|         419|           0|   -3.218408|   -0.550266|   -0.570878|    2.246410|    0.510424|    0.008502|
|         420|           0|   -3.227784|   -0.543886|   -0.560859|    2.235348|    0.510471|    0.008495|
+-----------------------------------------------------------------------+
|        File Writing Summary       |              Filename             |
+-----------------------------------------------------------------------+
|SU2 restart                        |solution_flow.dat                  |
|Paraview                           |flow.vtu                           |
|Paraview surface                   |surface_flow.vtu                   |
+-----------------------------------------------------------------------+

Writing the forces breakdown file (forces_breakdown.dat).
+-------------------------------------------------------------------------------------------------------+
|  Inner_Iter|   Time_Iter|    rms[Rho]|   rms[RhoU]|   rms[RhoV]|   rms[RhoE]|          CL|          CD|
+-------------------------------------------------------------------------------------------------------+
|         421|           0|   -3.238093|   -0.535221|   -0.549922|    2.222634|    0.510507|    0.008486|
|         422|           0|   -3.249112|   -0.525273|   -0.538935|    2.208532|    0.510552|    0.008476|
|         423|           0|   -3.260532|   -0.514933|   -0.528612|    2.193416|    0.510587|    0.008464|
|         424|           0|   -3.271987|   -0.504965|   -0.519499|    2.177767|    0.510629|    0.008453|
|         425|           0|   -3.283106|   -0.495946|   -0.512010|    2.162159|    0.510662|    0.008438|
|         426|           0|   -3.293379|   -0.488289|   -0.506434|    2.147389|    0.510704|    0.008424|
|         427|           0|   -3.302587|   -0.482285|   -0.502986|    2.133997|    0.510739|    0.008408|
|         428|           0|   -3.310439|   -0.478140|   -0.501793|    2.122615|    0.510779|    0.008393|
|         429|           0|   -3.316714|   -0.475971|   -0.502934|    2.113799|    0.510810|    0.008376|
|         430|           0|   -3.321082|   -0.475811|   -0.506444|    2.108186|    0.510849|    0.008361|
+-----------------------------------------------------------------------+
|        File Writing Summary       |              Filename             |
+-----------------------------------------------------------------------+
|SU2 restart                        |solution_flow.dat                  |
|Paraview                           |flow.vtu                           |
|Paraview surface                   |surface_flow.vtu                   |
+-----------------------------------------------------------------------+

Writing the forces breakdown file (forces_breakdown.dat).
+-------------------------------------------------------------------------------------------------------+
|  Inner_Iter|   Time_Iter|    rms[Rho]|   rms[RhoU]|   rms[RhoV]|   rms[RhoE]|          CL|          CD|
+-------------------------------------------------------------------------------------------------------+
|         431|           0|   -3.323893|   -0.477650|   -0.512342|    2.105488|    0.510880|    0.008344|
|         432|           0|   -3.325181|   -0.481449|   -0.520605|    2.105636|    0.510918|    0.008329|
|         433|           0|   -3.325085|   -0.487089|   -0.531171|    2.108331|    0.510946|    0.008313|
|         434|           0|   -3.323939|   -0.494417|   -0.543937|    2.112964|    0.510983|    0.008299|
|         435|           0|   -3.322161|   -0.503240|   -0.558735|    2.118812|    0.511009|    0.008284|
|         436|           0|   -3.320060|   -0.513276|   -0.575337|    2.125279|    0.511042|    0.008271|
|         437|           0|   -3.318073|   -0.524189|   -0.593468|    2.131640|    0.511064|    0.008258|
|         438|           0|   -3.316447|   -0.535586|   -0.612699|    2.137440|    0.511095|    0.008247|
|         439|           0|   -3.315577|   -0.547020|   -0.632484|    2.142114|    0.511117|    0.008236|
|         440|           0|   -3.315573|   -0.557988|   -0.652092|    2.145445|    0.511146|    0.008227|
+-----------------------------------------------------------------------+
|        File Writing Summary       |              Filename             |
+-----------------------------------------------------------------------+
|SU2 restart                        |solution_flow.dat                  |
|Paraview                           |flow.vtu                           |
|Paraview surface                   |surface_flow.vtu                   |
+-----------------------------------------------------------------------+

Writing the forces breakdown file (forces_breakdown.dat).
+-------------------------------------------------------------------------------------------------------+
|  Inner_Iter|   Time_Iter|    rms[Rho]|   rms[RhoU]|   rms[RhoV]|   rms[RhoE]|          CL|          CD|
+-------------------------------------------------------------------------------------------------------+
|         441|           0|   -3.316775|   -0.567964|   -0.670690|    2.147019|    0.511163|    0.008218|
|         442|           0|   -3.319080|   -0.576439|   -0.687316|    2.146904|    0.511191|    0.008212|
|         443|           0|   -3.322882|   -0.582993|   -0.701054|    2.144663|    0.511208|    0.008205|
|         444|           0|   -3.328211|   -0.587339|   -0.711144|    2.140236|    0.511232|    0.008202|
|         445|           0|   -3.335044|   -0.589374|   -0.717110|    2.133618|    0.511243|    0.008198|
|         446|           0|   -3.343210|   -0.589201|   -0.718897|    2.124941|    0.511265|    0.008197|
|         447|           0|   -3.352922|   -0.587101|   -0.716962|    2.113965|    0.511276|    0.008195|
|         448|           0|   -3.363771|   -0.583486|   -0.712026|    2.101050|    0.511297|    0.008196|
|         449|           0|   -3.375797|   -0.578840|   -0.705002|    2.086132|    0.511304|    0.008197|
|         450|           0|   -3.388709|   -0.573682|   -0.696810|    2.069481|    0.511324|    0.008200|
+-----------------------------------------------------------------------+
|        File Writing Summary       |              Filename             |
+-----------------------------------------------------------------------+
|SU2 restart                        |solution_flow.dat                  |
|Paraview                           |flow.vtu                           |
|Paraview surface                   |surface_flow.vtu                   |
+-----------------------------------------------------------------------+

Writing the forces breakdown file (forces_breakdown.dat).
+-------------------------------------------------------------------------------------------------------+
|  Inner_Iter|   Time_Iter|    rms[Rho]|   rms[RhoU]|   rms[RhoV]|   rms[RhoE]|          CL|          CD|
+-------------------------------------------------------------------------------------------------------+
|         451|           0|   -3.402118|   -0.568498|   -0.688318|    2.051504|    0.511333|    0.008202|
|         452|           0|   -3.415469|   -0.563739|   -0.680257|    2.032841|    0.511351|    0.008207|
|         453|           0|   -3.428699|   -0.559777|   -0.673236|    2.013721|    0.511359|    0.008210|
|         454|           0|   -3.441299|   -0.556927|   -0.667701|    1.994919|    0.511377|    0.008217|
|         455|           0|   -3.452624|   -0.555445|   -0.663969|    1.977475|    0.511384|    0.008222|
|         456|           0|   -3.462437|   -0.555532|   -0.662273|    1.962086|    0.511402|    0.008229|
|         457|           0|   -3.470382|   -0.557334|   -0.662773|    1.949618|    0.511411|    0.008235|
|         458|           0|   -3.475952|   -0.560970|   -0.665555|    1.941113|    0.511432|    0.008243|
|         459|           0|   -3.479284|   -0.566503|   -0.670683|    1.936697|    0.511445|    0.008248|
|         460|           0|   -3.480360|   -0.573972|   -0.678156|    1.936485|    0.511469|    0.008256|
+-----------------------------------------------------------------------+
|        File Writing Summary       |              Filename             |
+-----------------------------------------------------------------------+
|SU2 restart                        |solution_flow.dat                  |
|Paraview                           |flow.vtu                           |
|Paraview surface                   |surface_flow.vtu                   |
+-----------------------------------------------------------------------+

Writing the forces breakdown file (forces_breakdown.dat).
+-------------------------------------------------------------------------------------------------------+
|  Inner_Iter|   Time_Iter|    rms[Rho]|   rms[RhoU]|   rms[RhoV]|   rms[RhoE]|          CL|          CD|
+-------------------------------------------------------------------------------------------------------+
|         461|           0|   -3.479769|   -0.583386|   -0.687927|    1.939636|    0.511486|    0.008261|
|         462|           0|   -3.477281|   -0.594688|   -0.699886|    1.946148|    0.511515|    0.008268|
|         463|           0|   -3.473964|   -0.607800|   -0.713915|    1.954372|    0.511535|    0.008273|
|         464|           0|   -3.470152|   -0.622597|   -0.729760|    1.963566|    0.511566|    0.008279|
|         465|           0|   -3.466125|   -0.638856|   -0.747042|    1.973088|    0.511589|    0.008283|
|         466|           0|   -3.461916|   -0.656269|   -0.765249|    1.982664|    0.511623|    0.008289|
|         467|           0|   -3.458689|   -0.674431|   -0.783813|    1.990837|    0.511649|    0.008291|
|         468|           0|   -3.456098|   -0.692824|   -0.801880|    1.997869|    0.511687|    0.008295|
|         469|           0|   -3.454905|   -0.710830|   -0.818524|    2.002892|    0.511717|    0.008297|
|         470|           0|   -3.454743|   -0.727717|   -0.832688|    2.006254|    0.511757|    0.008299|
+-----------------------------------------------------------------------+
|        File Writing Summary       |              Filename             |
+-----------------------------------------------------------------------+
|SU2 restart                        |solution_flow.dat                  |
|Paraview                           |flow.vtu                           |
|Paraview surface                   |surface_flow.vtu                   |
+-----------------------------------------------------------------------+

Writing the forces breakdown file (forces_breakdown.dat).
+-------------------------------------------------------------------------------------------------------+
|  Inner_Iter|   Time_Iter|    rms[Rho]|   rms[RhoU]|   rms[RhoV]|   rms[RhoE]|          CL|          CD|
+-------------------------------------------------------------------------------------------------------+
|         471|           0|   -3.455734|   -0.742711|   -0.843411|    2.007806|    0.511787|    0.008299|
|         472|           0|   -3.458391|   -0.755084|   -0.849976|    2.007027|    0.511828|    0.008300|
|         473|           0|   -3.462573|   -0.764181|   -0.852152|    2.004052|    0.511857|    0.008299|
|         474|           0|   -3.468103|   -0.769674|   -0.850005|    1.999045|    0.511901|    0.008298|
|         475|           0|   -3.474966|   -0.771548|   -0.844139|    1.992014|    0.511934|    0.008295|
|         476|           0|   -3.483397|   -0.770134|   -0.835461|    1.982728|    0.511976|    0.008292|
|         477|           0|   -3.492912|   -0.765996|   -0.824974|    1.971664|    0.512008|    0.008288|
|         478|           0|   -3.503225|   -0.759868|   -0.813637|    1.959131|    0.512049|    0.008284|
|         479|           0|   -3.514555|   -0.752548|   -0.802374|    1.944925|    0.512080|    0.008278|
|         480|           0|   -3.526154|   -0.744772|   -0.791834|    1.929866|    0.512119|    0.008274|
+-----------------------------------------------------------------------+
|        File Writing Summary       |              Filename             |
+-----------------------------------------------------------------------+
|SU2 restart                        |solution_flow.dat                  |
|Paraview                           |flow.vtu                           |
|Paraview surface                   |surface_flow.vtu                   |
+-----------------------------------------------------------------------+

Writing the forces breakdown file (forces_breakdown.dat).
+-------------------------------------------------------------------------------------------------------+
|  Inner_Iter|   Time_Iter|    rms[Rho]|   rms[RhoU]|   rms[RhoV]|   rms[RhoE]|          CL|          CD|
+-------------------------------------------------------------------------------------------------------+
|         481|           0|   -3.537898|   -0.737162|   -0.782580|    1.914190|    0.512149|    0.008267|
|         482|           0|   -3.548875|   -0.730223|   -0.775009|    1.899040|    0.512187|    0.008262|
|         483|           0|   -3.558958|   -0.724357|   -0.769446|    1.884792|    0.512214|    0.008255|
|         484|           0|   -3.568301|   -0.719878|   -0.766074|    1.871534|    0.512249|    0.008249|
|         485|           0|   -3.576197|   -0.716965|   -0.765023|    1.860346|    0.512271|    0.008241|
|         486|           0|   -3.581938|   -0.715745|   -0.766353|    1.852363|    0.512303|    0.008235|
|         487|           0|   -3.585939|   -0.716262|   -0.770160|    1.847342|    0.512322|    0.008227|
|         488|           0|   -3.587951|   -0.718534|   -0.776435|    1.845629|    0.512349|    0.008220|
|         489|           0|   -3.588678|   -0.722508|   -0.785180|    1.846397|    0.512365|    0.008212|
|         490|           0|   -3.587247|   -0.728082|   -0.796337|    1.850500|    0.512390|    0.008206|
+-----------------------------------------------------------------------+
|        File Writing Summary       |              Filename             |
+-----------------------------------------------------------------------+
|SU2 restart                        |solution_flow.dat                  |
|Paraview                           |flow.vtu                           |
|Paraview surface                   |surface_flow.vtu                   |
+-----------------------------------------------------------------------+

Writing the forces breakdown file (forces_breakdown.dat).
+-------------------------------------------------------------------------------------------------------+
|  Inner_Iter|   Time_Iter|    rms[Rho]|   rms[RhoU]|   rms[RhoV]|   rms[RhoE]|          CL|          CD|
+-------------------------------------------------------------------------------------------------------+
|         491|           0|   -3.584756|   -0.735120|   -0.809854|    1.856447|    0.512402|    0.008198|
|         492|           0|   -3.582381|   -0.743431|   -0.825582|    1.862670|    0.512424|    0.008192|
|         493|           0|   -3.579793|   -0.752741|   -0.843312|    1.869326|    0.512432|    0.008185|
|         494|           0|   -3.576682|   -0.762721|   -0.862716|    1.876535|    0.512452|    0.008180|
|         495|           0|   -3.574263|   -0.773003|   -0.883425|    1.882833|    0.512457|    0.008173|
|         496|           0|   -3.573091|   -0.783180|   -0.904831|    1.887523|    0.512473|    0.008169|
|         497|           0|   -3.573216|   -0.792791|   -0.926180|    1.890498|    0.512477|    0.008163|
|         498|           0|   -3.573830|   -0.801368|   -0.946534|    1.892506|    0.512492|    0.008159|
|         499|           0|   -3.575922|   -0.808513|   -0.964907|    1.892498|    0.512494|    0.008154|

----------------------------- Solver Exit -------------------------------

Maximum number of iterations reached (ITER = 500) before convergence.
+-----------------------------------------------------------------------+
|      Convergence Field     |     Value    |   Criterion  |  Converged |
+-----------------------------------------------------------------------+
|                  Cauchy[CD]|   0.000876156|       < 1e-10|          No|
+-----------------------------------------------------------------------+
-------------------------------------------------------------------------
+-----------------------------------------------------------------------+
|        File Writing Summary       |              Filename             |
+-----------------------------------------------------------------------+
|SU2 restart                        |solution_flow.dat                  |
|Paraview                           |flow.vtu                           |
|Paraview surface                   |surface_flow.vtu                   |
+-----------------------------------------------------------------------+

Writing the forces breakdown file (forces_breakdown.dat).

------------------------- Solver Postprocessing -------------------------
Deleted CNumerics container.
Deleted CIntegration container.
Deleted CSolver container.
Deleted CIteration container.
Deleted CInterpolator container.
Deleted CInterface container.
Deleted CGeometry container.
Deleted CFreeFormDefBox class.
Deleted CSurfaceMovement class.
Deleted CVolumetricMovement class.
Deleted CConfig container.
Deleted nInst container.
Deleted COutput class.
-------------------------------------------------------------------------

------------------------- Exit Success (SU2_CFD) ------------------------

