
-------------------------------------------------------------------------
|    ___ _   _ ___                                                      |
|   / __| | | |_  )   Release 7.0.3 "Blackbird"                         |
|   \__ \ |_| |/ /                                                      |
|   |___/\___//___|   Suite (Computational Fluid Dynamics Code)         |
|                                                                       |
-------------------------------------------------------------------------
| SU2 Project Website: https://su2code.github.io                        |
|                                                                       |
| The SU2 Project is maintained by the SU2 Foundation                   |
| (http://su2foundation.org)                                            |
-------------------------------------------------------------------------
| Copyright 2012-2020, SU2 Contributors                                 |
|                                                                       |
| SU2 is free software; you can redistribute it and/or                  |
| modify it under the terms of the GNU Lesser General Public            |
| License as published by the Free Software Foundation; either          |
| version 2.1 of the License, or (at your option) any later version.    |
|                                                                       |
| SU2 is distributed in the hope that it will be useful,                |
| but WITHOUT ANY WARRANTY; without even the implied warranty of        |
| MERCHANTABILITY or FITNESS FOR A PARTICULAR PURPOSE. See the GNU      |
| Lesser General Public License for more details.                       |
|                                                                       |
| You should have received a copy of the GNU Lesser General Public      |
| License along with SU2. If not, see <http://www.gnu.org/licenses/>.   |
-------------------------------------------------------------------------

Parsing config file for zone 0

----------------- Physical Case Definition ( Zone 0 ) -------------------
Compressible Euler equations.
Mach number: 0.294.
Angle of attack (AoA): 10 deg, and angle of sideslip (AoS): 0 deg.
No restart solution, use the values at infinity (freestream).
Dimensional simulation.
The reference area is 10 m^2.
The semi-span will be computed using the max y(3D) value.
The reference length is 1 m.
Reference origin for moment evaluation is (0, 0, 0).
Surface(s) where the force coefficients are evaluated: Wing_1.

Surface(s) where the objective function is evaluated: airfoil.
Surface(s) plotted in the output file: Wing_1.
Surface(s) to be analyzed in detail: airfoil.
Surface(s) affected by the design variables: Wing_1.
Input mesh file name: deformed.su2

--------------- Space Numerical Integration ( Zone 0 ) ------------------
Roe (with entropy fix = 0) solver for the flow inviscid terms.
Roe with DDES's FD low-dissipation function.
Second order integration in space, with slope limiter.
Venkatakrishnan slope-limiting method, with constant: 0.05. 
The reference element size is: 1. 
Gradient for upwind reconstruction: Green-Gauss.
Gradient for viscous and source terms: Green-Gauss.

--------------- Time Numerical Integration  ( Zone 0 ) ------------------
Local time stepping (steady state simulation).
Euler implicit method for the flow equations.
FGMRES is used for solving the linear system.
Using a ILU(0) preconditioning.
Convergence criteria of the linear solver: 1e-06.
Max number of linear iterations: 5.
V Multigrid Cycle, with 3 multigrid levels.
Damping factor for the residual restriction: 0.75.
Damping factor for the correction prolongation: 0.75.
No CFL adaptation.
+-------------------------------------------+
|  MG Level| Presmooth|PostSmooth|CorrectSmo|
+-------------------------------------------+
|         0|         1|         0|         0|
|         1|         2|         0|         0|
|         2|         3|         0|         0|
|         3|         3|         0|         0|
+-------------------------------------------+
Courant-Friedrichs-Lewy number:        1

------------------ Convergence Criteria  ( Zone 0 ) ---------------------
Maximum number of solver subiterations: 1000.
Begin convergence monitoring at iteration 10.
Residual minimum value: 1e-8.
Cauchy series min. value: 1e-10.
Number of Cauchy elements: 100.
Begin windowed time average at iteration 15.

-------------------- Output Information ( Zone 0 ) ----------------------
Writing solution files every 10 iterations.
Writing the convergence history file every 1 inner iterations.
Writing the screen convergence history every 1 inner iterations.
The tabular file format is Tecplot (.dat).
Convergence history file name: history.
Forces breakdown file name: forces_breakdown.dat.
Surface file name: surface_flow.
Volume file name: flow.
Restart file name: solution_flow.dat.

------------- Config File Boundary Information ( Zone 0 ) ---------------
+-----------------------------------------------------------------------+
|                        Marker Type|                        Marker Name|
+-----------------------------------------------------------------------+
|                         Euler wall|                             Wing_1|
+-----------------------------------------------------------------------+
|                          Far-field|                           Farfield|
+-----------------------------------------------------------------------+
|                     Symmetry plane|                                  0|
+-----------------------------------------------------------------------+
|           Deformable mesh boundary|                            airfoil|
+-----------------------------------------------------------------------+

-------------------- Output Preprocessing ( Zone 0 ) --------------------
Screen output fields: INNER_ITER, TIME_ITER, RMS_DENSITY, RMS_MOMENTUM-X, RMS_MOMENTUM-Y, RMS_ENERGY, LIFT, DRAG
  Info: Ignoring the following history output groups:
  TIME_ITER
History output group(s): ITER, RMS_RES, AERO_COEFF
Warning: No (valid) fields chosen for convergence monitoring. Convergence monitoring inactive.
Warning: No (valid) fields chosen for time convergence monitoring. Time convergence monitoring inactive.
Volume output fields: COORDINATES, SOLUTION, PRIMITIVE

------------------- Geometry Preprocessing ( Zone 0 ) -------------------
Three dimensional problem.
142678 grid points before partitioning.
739205 volume elements before partitioning.
2 surface markers.
99234 boundary elements in index 0 (Marker = Wing_1).
1280 boundary elements in index 1 (Marker = Farfield).
Executing the partitioning functions.
Building the graph adjacency structure.
Calling ParMETIS... graph partitioning complete (18884 edge cuts).
Distributing ParMETIS coloring.
Rebalancing vertices.
Rebalancing volume element connectivity.
Rebalancing markers and surface elements.
153425 vertices including ghost points. 
767118 interior elements including halo cells. 
767118 tetrahedra.
Establishing MPI communication patterns.
Setting point connectivity.
Renumbering points (Reverse Cuthill McKee Ordering).
Recomputing point connectivity.
Setting element connectivity.
Checking the numerical grid orientation.
Identifying edges and vertices.
Computing centers of gravity.
Setting the control volume structure.
Volume of the computational grid: 587310.
Searching for the closest normal neighbors to the surfaces.
Storing a mapping from global to local point index.
Compute the surface curvature.
Max K: 952.998. Mean K: 12.8947. Standard deviation K: 55.0502.
Checking for periodicity.
Computing mesh quality statistics for the dual control volumes.
+--------------------------------------------------------------+
|           Mesh Quality Metric|        Minimum|        Maximum|
+--------------------------------------------------------------+
|    Orthogonality Angle (deg.)|        46.7677|        85.7517|
|     CV Face Area Aspect Ratio|        1.42524|        38.0606|
|           CV Sub-Volume Ratio|        1.02919|        141.937|
+--------------------------------------------------------------+
Setting the multigrid structure.
+-------------------------------------------+
|  MG Level|       CVs|Aggl. Rate|       CFL|
+-------------------------------------------+
|         0|    153425|    1/1.00|         1|
|         1|     27876|     1/5.5|  0.849577|
|         2|      6802|     1/4.1|  0.796335|
Finding max control volume width.
Communicating number of neighbors.
Semi-span length = 5.01444 m.
Wetted area = 42.2935 m^2.
Area projection in the x-plane = 3.06593 m^2, y-plane = 1.40318 m^2, z-plane = 20.1627 m^2.
Max. coordinate in the x-direction = 1.02178 m, y-direction = 5.01444 m, z-direction = 0.444857 m.
Min. coordinate in the x-direction = -1.01916 m, y-direction = -5.01458 m, z-direction = -0.120242 m.
Checking if Euler & Symmetry markers are straight/plane:
Boundary marker Wing_1 is NOT a single plane.
Boundary marker 0 is a single plane.

-------------------- Solver Preprocessing ( Zone 0 ) --------------------
Inviscid flow: Computing density based on free-stream
temperature and pressure using the ideal gas law.
Force coefficients computed using free-stream values.

-- Models:
+------------------------------------------------------------------------------+
|          Viscosity Model|        Conductivity Model|              Fluid Model|
+------------------------------------------------------------------------------+
|                        -|                         -|             STANDARD_AIR|
+------------------------------------------------------------------------------+
-- Fluid properties:
+------------------------------------------------------------------------------+
|                  Name|    Dim. value|    Ref. value|      Unit|Non-dim. value|
+------------------------------------------------------------------------------+
|          Gas Constant|       287.058|             1|  N.m/kg.K|       287.058|
|      Spec. Heat Ratio|             -|             -|         -|           1.4|
+------------------------------------------------------------------------------+
-- Initial and free-stream conditions:
+------------------------------------------------------------------------------+
|                  Name|    Dim. value|    Ref. value|      Unit|Non-dim. value|
+------------------------------------------------------------------------------+
|       Static Pressure|        101325|             1|        Pa|        101325|
|               Density|       1.22498|             1|    kg/m^3|       1.22498|
|           Temperature|        288.15|             1|         K|        288.15|
|          Total Energy|        211794|             1|   m^2/s^2|        211794|
|            Velocity-X|       98.5274|             1|       m/s|       98.5274|
|            Velocity-Y|             0|             1|       m/s|             0|
|            Velocity-Z|        17.373|             1|       m/s|        17.373|
|    Velocity Magnitude|       100.047|             1|       m/s|       100.047|
+------------------------------------------------------------------------------+
|           Mach Number|             -|             -|         -|         0.294|
+------------------------------------------------------------------------------+
Initialize Jacobian structure (Euler). MG level: 0.
Initialize Jacobian structure (Euler). MG level: 1.
Initialize Jacobian structure (Euler). MG level: 2.

------------------- Numerics Preprocessing ( Zone 0 ) -------------------

----------------- Integration Preprocessing ( Zone 0 ) ------------------

------------------- Iteration Preprocessing ( Zone 0 ) ------------------
Euler/Navier-Stokes/RANS fluid iteration.

------------------------------ Begin Solver -----------------------------

Simulation Run using the Single-zone Driver
+-------------------------------------------------------------------------------------------------------+
|  Inner_Iter|   Time_Iter|    rms[Rho]|   rms[RhoU]|   rms[RhoV]|   rms[RhoE]|          CL|          CD|
+-------------------------------------------------------------------------------------------------------+
|           0|           0|   -1.670347|    0.498300|   -0.401251|    3.798753|    2.044198|    0.918662|
|           1|           0|   -1.778380|    0.408109|   -0.151481|    3.691020|    3.560367|    1.585951|
|           2|           0|   -1.781412|    0.438854|    0.041018|    3.689716|    4.618600|    2.035777|
|           3|           0|   -1.727472|    0.523688|    0.157765|    3.744436|    5.300225|    2.305713|
|           4|           0|   -1.664949|    0.619434|    0.252936|    3.807335|    5.681774|    2.431507|
|           5|           0|   -1.606830|    0.715865|    0.344782|    3.866008|    5.832487|    2.446613|
|           6|           0|   -1.553415|    0.810589|    0.437738|    3.920207|    5.811640|    2.380551|
|           7|           0|   -1.503684|    0.901753|    0.531379|    3.970844|    5.669042|    2.258401|
|           8|           0|   -1.457415|    0.987854|    0.624188|    4.018037|    5.446456|    2.101226|
|           9|           0|   -1.414944|    1.067735|    0.714586|    4.061346|    5.177778|    1.926255|
|          10|           0|   -1.377037|    1.140811|    0.801331|    4.099943|    4.887497|    1.746313|
+-----------------------------------------------------------------------+
|        File Writing Summary       |              Filename             |
+-----------------------------------------------------------------------+
|SU2 restart                        |solution_flow.dat                  |
|Paraview                           |flow.vtu                           |
|Paraview surface                   |surface_flow.vtu                   |
+-----------------------------------------------------------------------+

Writing the forces breakdown file (forces_breakdown.dat).
+-------------------------------------------------------------------------------------------------------+
|  Inner_Iter|   Time_Iter|    rms[Rho]|   rms[RhoU]|   rms[RhoV]|   rms[RhoE]|          CL|          CD|
+-------------------------------------------------------------------------------------------------------+
|          11|           0|   -1.344134|    1.206911|    0.883449|    4.133322|    4.591867|    1.569975|
|          12|           0|   -1.316825|    1.265964|    0.960265|    4.160796|    4.301557|    1.402851|
|          13|           0|   -1.295334|    1.318079|    1.031229|    4.182020|    4.022669|    1.247996|
|          14|           0|   -1.279682|    1.363421|    1.095948|    4.196813|    3.757573|    1.106361|
|          15|           0|   -1.269668|    1.402167|    1.154312|    4.205179|    3.506087|    0.977500|
|          16|           0|   -1.264705|    1.434491|    1.206228|    4.207444|    3.266345|    0.860087|
|          17|           0|   -1.263698|    1.460530|    1.251710|    4.204437|    3.035698|    0.752364|
|          18|           0|   -1.264896|    1.480478|    1.290779|    4.197754|    2.811248|    0.652464|
|          19|           0|   -1.265753|    1.494505|    1.323440|    4.190083|    2.590313|    0.558630|
|          20|           0|   -1.263488|    1.502868|    1.349872|    4.184922|    2.370737|    0.469391|
+-----------------------------------------------------------------------+
|        File Writing Summary       |              Filename             |
+-----------------------------------------------------------------------+
|SU2 restart                        |solution_flow.dat                  |
|Paraview                           |flow.vtu                           |
|Paraview surface                   |surface_flow.vtu                   |
+-----------------------------------------------------------------------+

Writing the forces breakdown file (forces_breakdown.dat).
+-------------------------------------------------------------------------------------------------------+
|  Inner_Iter|   Time_Iter|    rms[Rho]|   rms[RhoU]|   rms[RhoV]|   rms[RhoE]|          CL|          CD|
+-------------------------------------------------------------------------------------------------------+
|          21|           0|   -1.255566|    1.505798|    1.370176|    4.186169|    2.151039|    0.383612|
|          22|           0|   -1.240426|    1.503724|    1.384579|    4.197022|    1.930582|    0.300558|
|          23|           0|   -1.218778|    1.497518|    1.393269|    4.217732|    1.709500|    0.219867|
|          24|           0|   -1.192981|    1.487406|    1.396709|    4.245520|    1.488681|    0.141533|
|          25|           0|   -1.166024|    1.474278|    1.395297|    4.276369|    1.269593|    0.065827|
|          26|           0|   -1.140521|    1.459242|    1.389489|    4.306622|    1.054152|   -0.006778|
|          27|           0|   -1.118510|    1.443372|    1.379725|    4.333406|    0.844570|   -0.075684|
|          28|           0|   -1.101117|    1.427481|    1.366954|    4.355133|    0.643143|   -0.140244|
|          29|           0|   -1.088655|    1.412047|    1.351606|    4.371288|    0.452162|   -0.199809|
|          30|           0|   -1.081287|    1.397448|    1.334298|    4.381510|    0.273780|   -0.253779|
+-----------------------------------------------------------------------+
|        File Writing Summary       |              Filename             |
+-----------------------------------------------------------------------+
|SU2 restart                        |solution_flow.dat                  |
|Paraview                           |flow.vtu                           |
|Paraview surface                   |surface_flow.vtu                   |
+-----------------------------------------------------------------------+

Writing the forces breakdown file (forces_breakdown.dat).
+-------------------------------------------------------------------------------------------------------+
|  Inner_Iter|   Time_Iter|    rms[Rho]|   rms[RhoU]|   rms[RhoV]|   rms[RhoE]|          CL|          CD|
+-------------------------------------------------------------------------------------------------------+
|          31|           0|   -1.078025|    1.383888|    1.315265|    4.386695|    0.109977|   -0.301626|
|          32|           0|   -1.077749|    1.372086|    1.295260|    4.387869|   -0.037507|   -0.342926|
|          33|           0|   -1.078986|    1.363374|    1.274611|    4.386528|   -0.167194|   -0.377371|
|          34|           0|   -1.079202|    1.358132|    1.254352|    4.385100|   -0.277871|   -0.404750|
|          35|           0|   -1.076545|    1.357332|    1.235357|    4.385744|   -0.368597|   -0.424951|
|          36|           0|   -1.070596|    1.362178|    1.221189|    4.389386|   -0.438697|   -0.437962|
|          37|           0|   -1.061145|    1.374299|    1.214798|    4.396759|   -0.487748|   -0.443850|
|          38|           0|   -1.049562|    1.393810|    1.220681|    4.406636|   -0.515537|   -0.442746|
|          39|           0|   -1.037292|    1.419263|    1.240315|    4.417871|   -0.522045|   -0.434831|
|          40|           0|   -1.026310|    1.447139|    1.271682|    4.428256|   -0.507446|   -0.420339|
+-----------------------------------------------------------------------+
|        File Writing Summary       |              Filename             |
+-----------------------------------------------------------------------+
|SU2 restart                        |solution_flow.dat                  |
|Paraview                           |flow.vtu                           |
|Paraview surface                   |surface_flow.vtu                   |
+-----------------------------------------------------------------------+

Writing the forces breakdown file (forces_breakdown.dat).
+-------------------------------------------------------------------------------------------------------+
|  Inner_Iter|   Time_Iter|    rms[Rho]|   rms[RhoU]|   rms[RhoV]|   rms[RhoE]|          CL|          CD|
+-------------------------------------------------------------------------------------------------------+
|          41|           0|   -1.018729|    1.474971|    1.311455|    4.435366|   -0.472142|   -0.399552|
|          42|           0|   -1.015687|    1.501628|    1.354768|    4.437903|   -0.416725|   -0.372791|
|          43|           0|   -1.017349|    1.525118|    1.396829|    4.435264|   -0.341978|   -0.340424|
|          44|           0|   -1.023494|    1.543685|    1.434889|    4.427459|   -0.248879|   -0.302859|
|          45|           0|   -1.034036|    1.557158|    1.467160|    4.414552|   -0.138612|   -0.260553|
|          46|           0|   -1.045712|    1.564417|    1.492465|    4.399595|   -0.012564|   -0.214009|
|          47|           0|   -1.057365|    1.565977|    1.510615|    4.384217|    0.127665|   -0.163778|
|          48|           0|   -1.066446|    1.561151|    1.521782|    4.371408|    0.280290|   -0.110458|
|          49|           0|   -1.069746|    1.550329|    1.526065|    4.365467|    0.443380|   -0.054687|
|          50|           0|   -1.066464|    1.532741|    1.523219|    4.367729|    0.614854|    0.002858|
+-----------------------------------------------------------------------+
|        File Writing Summary       |              Filename             |
+-----------------------------------------------------------------------+
|SU2 restart                        |solution_flow.dat                  |
|Paraview                           |flow.vtu                           |
|Paraview surface                   |surface_flow.vtu                   |
+-----------------------------------------------------------------------+

Writing the forces breakdown file (forces_breakdown.dat).
+-------------------------------------------------------------------------------------------------------+
|  Inner_Iter|   Time_Iter|    rms[Rho]|   rms[RhoU]|   rms[RhoV]|   rms[RhoE]|          CL|          CD|
+-------------------------------------------------------------------------------------------------------+
|          51|           0|   -1.057777|    1.508973|    1.514004|    4.377499|    0.792507|    0.061467|
|          52|           0|   -1.045097|    1.479737|    1.498332|    4.393224|    0.974064|    0.120407|
|          53|           0|   -1.031000|    1.446951|    1.477731|    4.411466|    1.157215|    0.178939|
|          54|           0|   -1.018027|    1.413604|    1.453612|    4.429075|    1.339600|    0.236314|
|          55|           0|   -1.008071|    1.383259|    1.427900|    4.443512|    1.518899|    0.291795|
|          56|           0|   -1.001962|    1.359417|    1.403450|    4.453701|    1.692834|    0.344671|
|          57|           0|   -0.999750|    1.347203|    1.384150|    4.459429|    1.859249|    0.394274|
|          58|           0|   -1.003076|    1.346529|    1.374183|    4.458738|    2.016116|    0.439982|
|          59|           0|   -1.010804|    1.356724|    1.375759|    4.452782|    2.161565|    0.481239|
|          60|           0|   -1.022472|    1.374005|    1.387643|    4.441804|    2.293930|    0.517560|
+-----------------------------------------------------------------------+
|        File Writing Summary       |              Filename             |
+-----------------------------------------------------------------------+
|SU2 restart                        |solution_flow.dat                  |
|Paraview                           |flow.vtu                           |
|Paraview surface                   |surface_flow.vtu                   |
+-----------------------------------------------------------------------+

Writing the forces breakdown file (forces_breakdown.dat).
+-------------------------------------------------------------------------------------------------------+
|  Inner_Iter|   Time_Iter|    rms[Rho]|   rms[RhoU]|   rms[RhoV]|   rms[RhoE]|          CL|          CD|
+-------------------------------------------------------------------------------------------------------+
|          61|           0|   -1.037324|    1.395098|    1.406765|    4.426293|    2.411783|    0.548547|
|          62|           0|   -1.053760|    1.416974|    1.429615|    4.407500|    2.513947|    0.573894|
|          63|           0|   -1.070362|    1.437167|    1.452845|    4.386663|    2.599528|    0.593391|
|          64|           0|   -1.085801|    1.455229|    1.474428|    4.365154|    2.667905|    0.606928|
|          65|           0|   -1.100277|    1.469843|    1.492785|    4.342981|    2.718750|    0.614492|
|          66|           0|   -1.111650|    1.480191|    1.507282|    4.323023|    2.752011|    0.616167|
|          67|           0|   -1.119064|    1.486052|    1.517562|    4.306952|    2.767917|    0.612126|
|          68|           0|   -1.123612|    1.487967|    1.523583|    4.294736|    2.766961|    0.602633|
|          69|           0|   -1.126124|    1.486286|    1.525244|    4.286565|    2.749875|    0.588030|
|          70|           0|   -1.127674|    1.480496|    1.522430|    4.281770|    2.717620|    0.568732|
+-----------------------------------------------------------------------+
|        File Writing Summary       |              Filename             |
+-----------------------------------------------------------------------+
|SU2 restart                        |solution_flow.dat                  |
|Paraview                           |flow.vtu                           |
|Paraview surface                   |surface_flow.vtu                   |
+-----------------------------------------------------------------------+

Writing the forces breakdown file (forces_breakdown.dat).
+-------------------------------------------------------------------------------------------------------+
|  Inner_Iter|   Time_Iter|    rms[Rho]|   rms[RhoU]|   rms[RhoV]|   rms[RhoE]|          CL|          CD|
+-------------------------------------------------------------------------------------------------------+
|          71|           0|   -1.128448|    1.470491|    1.515327|    4.280594|    2.671356|    0.545218|
|          72|           0|   -1.129593|    1.456863|    1.504075|    4.281249|    2.612401|    0.518013|
|          73|           0|   -1.130768|    1.439384|    1.488905|    4.283883|    2.542225|    0.487683|
|          74|           0|   -1.132351|    1.417978|    1.470389|    4.287476|    2.462373|    0.454817|
|          75|           0|   -1.134865|    1.392644|    1.448794|    4.290878|    2.374477|    0.420015|
|          76|           0|   -1.138753|    1.363941|    1.424677|    4.293120|    2.280203|    0.383879|
|          77|           0|   -1.144252|    1.332501|    1.398558|    4.293569|    2.181239|    0.347000|
|          78|           0|   -1.151364|    1.299853|    1.372241|    4.291856|    2.079249|    0.309952|
|          79|           0|   -1.160992|    1.267507|    1.347265|    4.286941|    1.975837|    0.273276|
|          80|           0|   -1.172186|    1.237440|    1.324782|    4.279785|    1.872527|    0.237470|
+-----------------------------------------------------------------------+
|        File Writing Summary       |              Filename             |
+-----------------------------------------------------------------------+
|SU2 restart                        |solution_flow.dat                  |
|Paraview                           |flow.vtu                           |
|Paraview surface                   |surface_flow.vtu                   |
+-----------------------------------------------------------------------+

Writing the forces breakdown file (forces_breakdown.dat).
+-------------------------------------------------------------------------------------------------------+
|  Inner_Iter|   Time_Iter|    rms[Rho]|   rms[RhoU]|   rms[RhoV]|   rms[RhoE]|          CL|          CD|
+-------------------------------------------------------------------------------------------------------+
|          81|           0|   -1.185431|    1.212511|    1.305982|    4.269760|    1.770743|    0.202990|
|          82|           0|   -1.199967|    1.194144|    1.291876|    4.257463|    1.671805|    0.170245|
|          83|           0|   -1.215365|    1.183963|    1.282875|    4.243252|    1.576925|    0.139593|
|          84|           0|   -1.231335|    1.182860|    1.278545|    4.227438|    1.487175|    0.111334|
|          85|           0|   -1.247940|    1.189770|    1.277845|    4.209862|    1.403476|    0.085713|
|          86|           0|   -1.264779|    1.202777|    1.279496|    4.190905|    1.326622|    0.062916|
|          87|           0|   -1.281988|    1.218794|    1.282313|    4.170408|    1.257247|    0.043076|
|          88|           0|   -1.299100|    1.235068|    1.285432|    4.148858|    1.195849|    0.026269|
|          89|           0|   -1.315372|    1.251500|    1.288053|    4.127268|    1.142793|    0.012523|
|          90|           0|   -1.330424|    1.266218|    1.289773|    4.106397|    1.098313|    0.001822|
+-----------------------------------------------------------------------+
|        File Writing Summary       |              Filename             |
+-----------------------------------------------------------------------+
|SU2 restart                        |solution_flow.dat                  |
|Paraview                           |flow.vtu                           |
|Paraview surface                   |surface_flow.vtu                   |
+-----------------------------------------------------------------------+

Writing the forces breakdown file (forces_breakdown.dat).
+-------------------------------------------------------------------------------------------------------+
|  Inner_Iter|   Time_Iter|    rms[Rho]|   rms[RhoU]|   rms[RhoV]|   rms[RhoE]|          CL|          CD|
+-------------------------------------------------------------------------------------------------------+
|          91|           0|   -1.343980|    1.278645|    1.290097|    4.086691|    1.062529|   -0.005893|
|          92|           0|   -1.355742|    1.288251|    1.288917|    4.068676|    1.035447|   -0.010715|
|          93|           0|   -1.365650|    1.295244|    1.286192|    4.052883|    1.016968|   -0.012768|
|          94|           0|   -1.373990|    1.300187|    1.282029|    4.039495|    1.006896|   -0.012206|
|          95|           0|   -1.381328|    1.302358|    1.276565|    4.028051|    1.004952|   -0.009205|
|          96|           0|   -1.388769|    1.301792|    1.269775|    4.017493|    1.010773|   -0.003967|
|          97|           0|   -1.396550|    1.299320|    1.261655|    4.007664|    1.023959|    0.003307|
|          98|           0|   -1.405012|    1.295055|    1.252604|    3.998085|    1.044034|    0.012396|
|          99|           0|   -1.414268|    1.288620|    1.242246|    3.988607|    1.070493|    0.023081|
|         100|           0|   -1.424623|    1.280376|    1.230770|    3.978922|    1.102820|    0.035143|
+-----------------------------------------------------------------------+
|        File Writing Summary       |              Filename             |
+-----------------------------------------------------------------------+
|SU2 restart                        |solution_flow.dat                  |
|Paraview                           |flow.vtu                           |
|Paraview surface                   |surface_flow.vtu                   |
+-----------------------------------------------------------------------+

Writing the forces breakdown file (forces_breakdown.dat).
+-------------------------------------------------------------------------------------------------------+
|  Inner_Iter|   Time_Iter|    rms[Rho]|   rms[RhoU]|   rms[RhoV]|   rms[RhoE]|          CL|          CD|
+-------------------------------------------------------------------------------------------------------+
|         101|           0|   -1.435643|    1.270094|    1.218350|    3.969523|    1.140421|    0.048354|
|         102|           0|   -1.446791|    1.257730|    1.205231|    3.961054|    1.182705|    0.062495|
|         103|           0|   -1.458011|    1.243562|    1.191741|    3.953468|    1.229035|    0.077346|
|         104|           0|   -1.469974|    1.228206|    1.177932|    3.945772|    1.278778|    0.092692|
|         105|           0|   -1.481790|    1.210877|    1.163818|    3.938883|    1.331282|    0.108330|
|         106|           0|   -1.493365|    1.191779|    1.149490|    3.932764|    1.385893|    0.124064|
|         107|           0|   -1.504869|    1.171656|    1.135045|    3.926900|    1.441963|    0.139710|
|         108|           0|   -1.516340|    1.151202|    1.120668|    3.921156|    1.498848|    0.155092|
|         109|           0|   -1.527599|    1.131007|    1.106442|    3.915553|    1.555918|    0.170048|
|         110|           0|   -1.538912|    1.111795|    1.092654|    3.909523|    1.612570|    0.184429|
+-----------------------------------------------------------------------+
|        File Writing Summary       |              Filename             |
+-----------------------------------------------------------------------+
|SU2 restart                        |solution_flow.dat                  |
|Paraview                           |flow.vtu                           |
|Paraview surface                   |surface_flow.vtu                   |
+-----------------------------------------------------------------------+

Writing the forces breakdown file (forces_breakdown.dat).
+-------------------------------------------------------------------------------------------------------+
|  Inner_Iter|   Time_Iter|    rms[Rho]|   rms[RhoU]|   rms[RhoV]|   rms[RhoE]|          CL|          CD|
+-------------------------------------------------------------------------------------------------------+
|         111|           0|   -1.549948|    1.094308|    1.079589|    3.903124|    1.668217|    0.198101|
|         112|           0|   -1.561178|    1.079071|    1.067817|    3.895776|    1.722304|    0.210940|
|         113|           0|   -1.571882|    1.066847|    1.057757|    3.888112|    1.774298|    0.222839|
|         114|           0|   -1.581512|    1.058152|    1.049675|    3.880565|    1.823704|    0.233705|
|         115|           0|   -1.590352|    1.053437|    1.043824|    3.872718|    1.870065|    0.243457|
|         116|           0|   -1.598364|    1.052684|    1.040269|    3.864581|    1.912973|    0.252035|
|         117|           0|   -1.605456|    1.055343|    1.039029|    3.856199|    1.952067|    0.259391|
|         118|           0|   -1.611829|    1.060735|    1.039706|    3.847416|    1.987040|    0.265493|
|         119|           0|   -1.617444|    1.068869|    1.042121|    3.838382|    2.017618|    0.270320|
|         120|           0|   -1.622819|    1.078644|    1.045758|    3.828762|    2.043588|    0.273863|
+-----------------------------------------------------------------------+
|        File Writing Summary       |              Filename             |
+-----------------------------------------------------------------------+
|SU2 restart                        |solution_flow.dat                  |
|Paraview                           |flow.vtu                           |
|Paraview surface                   |surface_flow.vtu                   |
+-----------------------------------------------------------------------+

Writing the forces breakdown file (forces_breakdown.dat).
+-------------------------------------------------------------------------------------------------------+
|  Inner_Iter|   Time_Iter|    rms[Rho]|   rms[RhoU]|   rms[RhoV]|   rms[RhoE]|          CL|          CD|
+-------------------------------------------------------------------------------------------------------+
|         121|           0|   -1.627689|    1.089076|    1.050218|    3.818898|    2.064795|    0.276130|
|         122|           0|   -1.632852|    1.099152|    1.054995|    3.808139|    2.081127|    0.277141|
|         123|           0|   -1.638216|    1.108501|    1.059646|    3.796803|    2.092523|    0.276923|
|         124|           0|   -1.643692|    1.117041|    1.063763|    3.785340|    2.098982|    0.275517|
|         125|           0|   -1.649545|    1.124350|    1.066900|    3.773759|    2.100555|    0.272977|
|         126|           0|   -1.655156|    1.128917|    1.068682|    3.762523|    2.097358|    0.269366|
|         127|           0|   -1.660175|    1.131300|    1.068855|    3.752618|    2.089581|    0.264768|
|         128|           0|   -1.664660|    1.131242|    1.066954|    3.744124|    2.077447|    0.259270|
|         129|           0|   -1.668110|    1.128889|    1.062703|    3.738116|    2.061216|    0.252964|
|         130|           0|   -1.670544|    1.124065|    1.055782|    3.734811|    2.041210|    0.245955|
+-----------------------------------------------------------------------+
|        File Writing Summary       |              Filename             |
+-----------------------------------------------------------------------+
|SU2 restart                        |solution_flow.dat                  |
|Paraview                           |flow.vtu                           |
|Paraview surface                   |surface_flow.vtu                   |
+-----------------------------------------------------------------------+

Writing the forces breakdown file (forces_breakdown.dat).
+-------------------------------------------------------------------------------------------------------+
|  Inner_Iter|   Time_Iter|    rms[Rho]|   rms[RhoU]|   rms[RhoV]|   rms[RhoE]|          CL|          CD|
+-------------------------------------------------------------------------------------------------------+
|         131|           0|   -1.671737|    1.116567|    1.046068|    3.734460|    2.017782|    0.238348|
|         132|           0|   -1.671832|    1.106572|    1.033501|    3.736885|    1.991316|    0.230259|
|         133|           0|   -1.670993|    1.094194|    1.017820|    3.741708|    1.962223|    0.221801|
|         134|           0|   -1.669699|    1.079629|    0.998862|    3.748097|    1.930936|    0.213090|
|         135|           0|   -1.668019|    1.063338|    0.976851|    3.755684|    1.897902|    0.204242|
|         136|           0|   -1.666221|    1.045665|    0.951632|    3.763849|    1.863578|    0.195372|
|         137|           0|   -1.665192|    1.025603|    0.923026|    3.771090|    1.828429|    0.186590|
|         138|           0|   -1.664616|    1.004311|    0.891611|    3.777833|    1.792922|    0.178004|
|         139|           0|   -1.664344|    0.982922|    0.858036|    3.784065|    1.757522|    0.169716|
|         140|           0|   -1.665123|    0.962366|    0.823398|    3.788815|    1.722673|    0.161821|
+-----------------------------------------------------------------------+
|        File Writing Summary       |              Filename             |
+-----------------------------------------------------------------------+
|SU2 restart                        |solution_flow.dat                  |
|Paraview                           |flow.vtu                           |
|Paraview surface                   |surface_flow.vtu                   |
+-----------------------------------------------------------------------+

Writing the forces breakdown file (forces_breakdown.dat).
+-------------------------------------------------------------------------------------------------------+
|  Inner_Iter|   Time_Iter|    rms[Rho]|   rms[RhoU]|   rms[RhoV]|   rms[RhoE]|          CL|          CD|
+-------------------------------------------------------------------------------------------------------+
|         141|           0|   -1.667457|    0.943575|    0.789353|    3.791127|    1.688796|    0.154402|
|         142|           0|   -1.671064|    0.928138|    0.758368|    3.791401|    1.656292|    0.147536|
|         143|           0|   -1.675626|    0.917155|    0.733395|    3.789909|    1.625542|    0.141292|
|         144|           0|   -1.681924|    0.911190|    0.717429|    3.785803|    1.596894|    0.135725|
|         145|           0|   -1.689012|    0.910076|    0.712371|    3.780002|    1.570659|    0.130882|
|         146|           0|   -1.697051|    0.913359|    0.717972|    3.772058|    1.547121|    0.126800|
|         147|           0|   -1.705914|    0.920019|    0.732229|    3.762122|    1.526530|    0.123503|
|         148|           0|   -1.715160|    0.929397|    0.752220|    3.750596|    1.509083|    0.121003|
|         149|           0|   -1.724513|    0.940118|    0.774928|    3.737595|    1.494916|    0.119295|
|         150|           0|   -1.733651|    0.951164|    0.798207|    3.723333|    1.484109|    0.118360|
+-----------------------------------------------------------------------+
|        File Writing Summary       |              Filename             |
+-----------------------------------------------------------------------+
|SU2 restart                        |solution_flow.dat                  |
|Paraview                           |flow.vtu                           |
|Paraview surface                   |surface_flow.vtu                   |
+-----------------------------------------------------------------------+

Writing the forces breakdown file (forces_breakdown.dat).
+-------------------------------------------------------------------------------------------------------+
|  Inner_Iter|   Time_Iter|    rms[Rho]|   rms[RhoU]|   rms[RhoV]|   rms[RhoE]|          CL|          CD|
+-------------------------------------------------------------------------------------------------------+
|         151|           0|   -1.741925|    0.961957|    0.820480|    3.708535|    1.476722|    0.118176|
|         152|           0|   -1.749070|    0.971692|    0.840680|    3.693600|    1.472759|    0.118712|
|         153|           0|   -1.754212|    0.980101|    0.858212|    3.679814|    1.472172|    0.119921|
|         154|           0|   -1.757443|    0.986850|    0.872750|    3.667664|    1.474898|    0.121756|
|         155|           0|   -1.758775|    0.991424|    0.884116|    3.657714|    1.480823|    0.124161|
|         156|           0|   -1.758468|    0.993919|    0.892265|    3.650397|    1.489799|    0.127076|
|         157|           0|   -1.756823|    0.994322|    0.897191|    3.645928|    1.501640|    0.130434|
|         158|           0|   -1.754402|    0.992311|    0.899033|    3.643980|    1.516138|    0.134167|
|         159|           0|   -1.752109|    0.987701|    0.897905|    3.643652|    1.533050|    0.138204|
|         160|           0|   -1.749587|    0.980834|    0.893836|    3.645563|    1.552120|    0.142474|
+-----------------------------------------------------------------------+
|        File Writing Summary       |              Filename             |
+-----------------------------------------------------------------------+
|SU2 restart                        |solution_flow.dat                  |
|Paraview                           |flow.vtu                           |
|Paraview surface                   |surface_flow.vtu                   |
+-----------------------------------------------------------------------+

Writing the forces breakdown file (forces_breakdown.dat).
+-------------------------------------------------------------------------------------------------------+
|  Inner_Iter|   Time_Iter|    rms[Rho]|   rms[RhoU]|   rms[RhoV]|   rms[RhoE]|          CL|          CD|
+-------------------------------------------------------------------------------------------------------+
|         161|           0|   -1.747369|    0.971726|    0.886751|    3.648867|    1.573066|    0.146905|
|         162|           0|   -1.745951|    0.960551|    0.876632|    3.652706|    1.595601|    0.151426|
|         163|           0|   -1.745283|    0.947293|    0.863735|    3.656960|    1.619413|    0.155966|
|         164|           0|   -1.745463|    0.931622|    0.848483|    3.661275|    1.644193|    0.160459|
|         165|           0|   -1.746966|    0.913903|    0.830689|    3.664889|    1.669627|    0.164843|
|         166|           0|   -1.749852|    0.894159|    0.810442|    3.667497|    1.695393|    0.169060|
|         167|           0|   -1.753990|    0.872875|    0.787870|    3.669032|    1.721173|    0.173052|
|         168|           0|   -1.759239|    0.850413|    0.763262|    3.669558|    1.746661|    0.176770|
|         169|           0|   -1.765410|    0.827434|    0.737269|    3.669179|    1.771557|    0.180169|
|         170|           0|   -1.772335|    0.804523|    0.710697|    3.667867|    1.795578|    0.183209|
+-----------------------------------------------------------------------+
|        File Writing Summary       |              Filename             |
+-----------------------------------------------------------------------+
|SU2 restart                        |solution_flow.dat                  |
|Paraview                           |flow.vtu                           |
|Paraview surface                   |surface_flow.vtu                   |
+-----------------------------------------------------------------------+

Writing the forces breakdown file (forces_breakdown.dat).
+-------------------------------------------------------------------------------------------------------+
|  Inner_Iter|   Time_Iter|    rms[Rho]|   rms[RhoU]|   rms[RhoV]|   rms[RhoE]|          CL|          CD|
+-------------------------------------------------------------------------------------------------------+
|         171|           0|   -1.779869|    0.782404|    0.684590|    3.665612|    1.818461|    0.185859|
|         172|           0|   -1.787807|    0.762268|    0.660191|    3.662496|    1.839972|    0.188098|
|         173|           0|   -1.795834|    0.745641|    0.638970|    3.658662|    1.859885|    0.189905|
|         174|           0|   -1.804010|    0.733591|    0.622586|    3.653849|    1.877994|    0.191266|
|         175|           0|   -1.812402|    0.726952|    0.612399|    3.647834|    1.894112|    0.192172|
|         176|           0|   -1.820950|    0.725811|    0.609053|    3.640489|    1.908081|    0.192620|
|         177|           0|   -1.829372|    0.729741|    0.612485|    3.632049|    1.919769|    0.192613|
|         178|           0|   -1.837249|    0.738008|    0.621634|    3.622919|    1.929088|    0.192163|
|         179|           0|   -1.844600|    0.749334|    0.634927|    3.613021|    1.935984|    0.191286|
|         180|           0|   -1.851167|    0.762694|    0.650781|    3.602698|    1.940430|    0.190005|
+-----------------------------------------------------------------------+
|        File Writing Summary       |              Filename             |
+-----------------------------------------------------------------------+
|SU2 restart                        |solution_flow.dat                  |
|Paraview                           |flow.vtu                           |
|Paraview surface                   |surface_flow.vtu                   |
+-----------------------------------------------------------------------+

Writing the forces breakdown file (forces_breakdown.dat).
+-------------------------------------------------------------------------------------------------------+
|  Inner_Iter|   Time_Iter|    rms[Rho]|   rms[RhoU]|   rms[RhoV]|   rms[RhoE]|          CL|          CD|
+-------------------------------------------------------------------------------------------------------+
|         181|           0|   -1.857127|    0.776512|    0.667677|    3.591838|    1.942433|    0.188348|
|         182|           0|   -1.862511|    0.790069|    0.684413|    3.580590|    1.942029|    0.186349|
|         183|           0|   -1.867418|    0.802586|    0.700197|    3.568981|    1.939289|    0.184044|
|         184|           0|   -1.872433|    0.813402|    0.714440|    3.556590|    1.934300|    0.181471|
|         185|           0|   -1.876956|    0.822631|    0.726473|    3.544501|    1.927177|    0.178672|
|         186|           0|   -1.880632|    0.829559|    0.736117|    3.533397|    1.918075|    0.175693|
|         187|           0|   -1.883425|    0.834194|    0.743108|    3.523886|    1.907160|    0.172579|
|         188|           0|   -1.885507|    0.836382|    0.747450|    3.516163|    1.894609|    0.169377|
|         189|           0|   -1.887177|    0.835888|    0.748902|    3.510226|    1.880618|    0.166132|
|         190|           0|   -1.888250|    0.832679|    0.747536|    3.506498|    1.865407|    0.162890|
+-----------------------------------------------------------------------+
|        File Writing Summary       |              Filename             |
+-----------------------------------------------------------------------+
|SU2 restart                        |solution_flow.dat                  |
|Paraview                           |flow.vtu                           |
|Paraview surface                   |surface_flow.vtu                   |
+-----------------------------------------------------------------------+

Writing the forces breakdown file (forces_breakdown.dat).
+-------------------------------------------------------------------------------------------------------+
|  Inner_Iter|   Time_Iter|    rms[Rho]|   rms[RhoU]|   rms[RhoV]|   rms[RhoE]|          CL|          CD|
+-------------------------------------------------------------------------------------------------------+
|         191|           0|   -1.889030|    0.826584|    0.743243|    3.504732|    1.849199|    0.159698|
|         192|           0|   -1.889760|    0.817767|    0.736070|    3.504638|    1.832226|    0.156600|
|         193|           0|   -1.890865|    0.806279|    0.725740|    3.505648|    1.814720|    0.153638|
|         194|           0|   -1.892265|    0.791961|    0.712431|    3.507623|    1.796916|    0.150849|
|         195|           0|   -1.894051|    0.774768|    0.696147|    3.510248|    1.779041|    0.148268|
|         196|           0|   -1.896632|    0.754783|    0.676990|    3.512827|    1.761323|    0.145927|
|         197|           0|   -1.899522|    0.732068|    0.655038|    3.515768|    1.743980|    0.143850|
|         198|           0|   -1.903000|    0.706979|    0.630473|    3.518459|    1.727205|    0.142057|
|         199|           0|   -1.907142|    0.679801|    0.603752|    3.520615|    1.711189|    0.140565|
|         200|           0|   -1.912040|    0.651020|    0.575477|    3.521854|    1.696109|    0.139384|
+-----------------------------------------------------------------------+
|        File Writing Summary       |              Filename             |
+-----------------------------------------------------------------------+
|SU2 restart                        |solution_flow.dat                  |
|Paraview                           |flow.vtu                           |
|Paraview surface                   |surface_flow.vtu                   |
+-----------------------------------------------------------------------+

Writing the forces breakdown file (forces_breakdown.dat).
+-------------------------------------------------------------------------------------------------------+
|  Inner_Iter|   Time_Iter|    rms[Rho]|   rms[RhoU]|   rms[RhoV]|   rms[RhoE]|          CL|          CD|
+-------------------------------------------------------------------------------------------------------+
|         201|           0|   -1.917738|    0.621314|    0.546664|    3.521940|    1.682121|    0.138521|
|         202|           0|   -1.924035|    0.591684|    0.518783|    3.520943|    1.669376|    0.137984|
|         203|           0|   -1.930874|    0.564039|    0.493471|    3.518815|    1.658009|    0.137770|
|         204|           0|   -1.938570|    0.540352|    0.472769|    3.515056|    1.648135|    0.137878|
|         205|           0|   -1.946876|    0.522586|    0.458659|    3.509841|    1.639848|    0.138298|
|         206|           0|   -1.955637|    0.512188|    0.452571|    3.503221|    1.633230|    0.139021|
|         207|           0|   -1.964463|    0.509524|    0.454754|    3.495487|    1.628332|    0.140031|
|         208|           0|   -1.973141|    0.514300|    0.464005|    3.486721|    1.625189|    0.141310|
|         209|           0|   -1.981874|    0.524942|    0.478507|    3.476596|    1.623808|    0.142837|
|         210|           0|   -1.990346|    0.539717|    0.496234|    3.465434|    1.624190|    0.144588|
+-----------------------------------------------------------------------+
|        File Writing Summary       |              Filename             |
+-----------------------------------------------------------------------+
|SU2 restart                        |solution_flow.dat                  |
|Paraview                           |flow.vtu                           |
|Paraview surface                   |surface_flow.vtu                   |
+-----------------------------------------------------------------------+

Writing the forces breakdown file (forces_breakdown.dat).
+-------------------------------------------------------------------------------------------------------+
|  Inner_Iter|   Time_Iter|    rms[Rho]|   rms[RhoU]|   rms[RhoV]|   rms[RhoE]|          CL|          CD|
+-------------------------------------------------------------------------------------------------------+
|         211|           0|   -1.998523|    0.556433|    0.515216|    3.453329|    1.626305|    0.146535|
|         212|           0|   -2.006407|    0.572781|    0.533863|    3.440266|    1.630111|    0.148650|
|         213|           0|   -2.013072|    0.588635|    0.551209|    3.427441|    1.635542|    0.150903|
|         214|           0|   -2.018354|    0.603221|    0.566614|    3.415289|    1.642520|    0.153263|
|         215|           0|   -2.022277|    0.615891|    0.579655|    3.404212|    1.650943|    0.155695|
|         216|           0|   -2.025083|    0.626407|    0.590069|    3.394325|    1.660699|    0.158167|
|         217|           0|   -2.026947|    0.634440|    0.597728|    3.385836|    1.671658|    0.160645|
|         218|           0|   -2.028180|    0.640099|    0.602612|    3.378857|    1.683683|    0.163098|
|         219|           0|   -2.028874|    0.643276|    0.604662|    3.373607|    1.696620|    0.165492|
|         220|           0|   -2.029342|    0.643738|    0.604019|    3.369976|    1.710309|    0.167795|
+-----------------------------------------------------------------------+
|        File Writing Summary       |              Filename             |
+-----------------------------------------------------------------------+
|SU2 restart                        |solution_flow.dat                  |
|Paraview                           |flow.vtu                           |
|Paraview surface                   |surface_flow.vtu                   |
+-----------------------------------------------------------------------+

Writing the forces breakdown file (forces_breakdown.dat).
+-------------------------------------------------------------------------------------------------------+
|  Inner_Iter|   Time_Iter|    rms[Rho]|   rms[RhoU]|   rms[RhoV]|   rms[RhoE]|          CL|          CD|
+-------------------------------------------------------------------------------------------------------+
|         221|           0|   -2.029879|    0.641550|    0.600624|    3.367701|    1.724584|    0.169980|
|         222|           0|   -2.030580|    0.636642|    0.594485|    3.366682|    1.739275|    0.172016|
|         223|           0|   -2.031320|    0.628892|    0.585514|    3.367091|    1.754210|    0.173879|
|         224|           0|   -2.032247|    0.618357|    0.573636|    3.368706|    1.769210|    0.175544|
|         225|           0|   -2.033803|    0.605340|    0.559058|    3.370747|    1.784101|    0.176991|
|         226|           0|   -2.036164|    0.590024|    0.541888|    3.372774|    1.798712|    0.178203|
|         227|           0|   -2.039441|    0.572547|    0.522224|    3.374470|    1.812877|    0.179164|
|         228|           0|   -2.043657|    0.553087|    0.500298|    3.375583|    1.826440|    0.179864|
|         229|           0|   -2.048945|    0.532072|    0.476382|    3.375802|    1.839253|    0.180296|
|         230|           0|   -2.055186|    0.510107|    0.450907|    3.375120|    1.851175|    0.180454|
+-----------------------------------------------------------------------+
|        File Writing Summary       |              Filename             |
+-----------------------------------------------------------------------+
|SU2 restart                        |solution_flow.dat                  |
|Paraview                           |flow.vtu                           |
|Paraview surface                   |surface_flow.vtu                   |
+-----------------------------------------------------------------------+

Writing the forces breakdown file (forces_breakdown.dat).
+-------------------------------------------------------------------------------------------------------+
|  Inner_Iter|   Time_Iter|    rms[Rho]|   rms[RhoU]|   rms[RhoV]|   rms[RhoE]|          CL|          CD|
+-------------------------------------------------------------------------------------------------------+
|         231|           0|   -2.062399|    0.488032|    0.424543|    3.373335|    1.862080|    0.180337|
|         232|           0|   -2.070578|    0.466864|    0.398249|    3.370318|    1.871856|    0.179948|
|         233|           0|   -2.079506|    0.447492|    0.373357|    3.366169|    1.880404|    0.179294|
|         234|           0|   -2.089254|    0.431112|    0.351406|    3.360622|    1.887642|    0.178381|
|         235|           0|   -2.099680|    0.418837|    0.333921|    3.353746|    1.893508|    0.177223|
|         236|           0|   -2.110427|    0.411559|    0.322098|    3.345776|    1.897953|    0.175834|
|         237|           0|   -2.121331|    0.409553|    0.316679|    3.336735|    1.900957|    0.174234|
|         238|           0|   -2.132003|    0.412669|    0.317638|    3.326850|    1.902508|    0.172444|
|         239|           0|   -2.142304|    0.420215|    0.324263|    3.316214|    1.902619|    0.170486|
|         240|           0|   -2.152358|    0.431126|    0.335218|    3.304639|    1.901315|    0.168387|
+-----------------------------------------------------------------------+
|        File Writing Summary       |              Filename             |
+-----------------------------------------------------------------------+
|SU2 restart                        |solution_flow.dat                  |
|Paraview                           |flow.vtu                           |
|Paraview surface                   |surface_flow.vtu                   |
+-----------------------------------------------------------------------+

Writing the forces breakdown file (forces_breakdown.dat).
+-------------------------------------------------------------------------------------------------------+
|  Inner_Iter|   Time_Iter|    rms[Rho]|   rms[RhoU]|   rms[RhoV]|   rms[RhoE]|          CL|          CD|
+-------------------------------------------------------------------------------------------------------+
|         241|           0|   -2.162026|    0.443999|    0.348879|    3.292171|    1.898644|    0.166173|
|         242|           0|   -2.170972|    0.457584|    0.363828|    3.279231|    1.894664|    0.163870|
|         243|           0|   -2.179045|    0.470894|    0.378913|    3.266020|    1.889450|    0.161509|
|         244|           0|   -2.186625|    0.482899|    0.393286|    3.252192|    1.883089|    0.159118|
|         245|           0|   -2.192645|    0.493736|    0.406232|    3.239222|    1.875685|    0.156725|
|         246|           0|   -2.197370|    0.502955|    0.417320|    3.227176|    1.867347|    0.154359|
|         247|           0|   -2.200888|    0.510166|    0.426211|    3.216357|    1.858200|    0.152049|
|         248|           0|   -2.203438|    0.515146|    0.432780|    3.206918|    1.848371|    0.149822|
|         249|           0|   -2.205138|    0.517683|    0.436814|    3.199148|    1.837998|    0.147704|
|         250|           0|   -2.206291|    0.517998|    0.438198|    3.193093|    1.827220|    0.145720|
+-----------------------------------------------------------------------+
|        File Writing Summary       |              Filename             |
+-----------------------------------------------------------------------+
|SU2 restart                        |solution_flow.dat                  |
|Paraview                           |flow.vtu                           |
|Paraview surface                   |surface_flow.vtu                   |
+-----------------------------------------------------------------------+

Writing the forces breakdown file (forces_breakdown.dat).
+-------------------------------------------------------------------------------------------------------+
|  Inner_Iter|   Time_Iter|    rms[Rho]|   rms[RhoU]|   rms[RhoV]|   rms[RhoE]|          CL|          CD|
+-------------------------------------------------------------------------------------------------------+
|         251|           0|   -2.207080|    0.515991|    0.436921|    3.188804|    1.816179|    0.143892|
|         252|           0|   -2.208185|    0.511453|    0.432994|    3.185661|    1.805017|    0.142240|
|         253|           0|   -2.209480|    0.504460|    0.426423|    3.183848|    1.793875|    0.140782|
|         254|           0|   -2.210590|    0.494982|    0.417225|    3.183680|    1.782894|    0.139535|
|         255|           0|   -2.211987|    0.482986|    0.405353|    3.184459|    1.772203|    0.138510|
|         256|           0|   -2.213923|    0.468585|    0.390864|    3.185776|    1.761936|    0.137718|
|         257|           0|   -2.216379|    0.451756|    0.373791|    3.187497|    1.752212|    0.137167|
|         258|           0|   -2.219424|    0.432601|    0.354288|    3.189332|    1.743144|    0.136860|
|         259|           0|   -2.223224|    0.411374|    0.332435|    3.190880|    1.734838|    0.136800|
|         260|           0|   -2.227890|    0.388221|    0.308422|    3.191827|    1.727385|    0.136984|
+-----------------------------------------------------------------------+
|        File Writing Summary       |              Filename             |
+-----------------------------------------------------------------------+
|SU2 restart                        |solution_flow.dat                  |
|Paraview                           |flow.vtu                           |
|Paraview surface                   |surface_flow.vtu                   |
+-----------------------------------------------------------------------+

Writing the forces breakdown file (forces_breakdown.dat).
+-------------------------------------------------------------------------------------------------------+
|  Inner_Iter|   Time_Iter|    rms[Rho]|   rms[RhoU]|   rms[RhoV]|   rms[RhoE]|          CL|          CD|
+-------------------------------------------------------------------------------------------------------+
|         261|           0|   -2.233399|    0.363513|    0.282718|    3.192028|    1.720867|    0.137410|
|         262|           0|   -2.239841|    0.337795|    0.255881|    3.191224|    1.715350|    0.138069|
|         263|           0|   -2.247111|    0.311729|    0.228731|    3.189403|    1.710894|    0.138953|
|         264|           0|   -2.255181|    0.286256|    0.202464|    3.186415|    1.707538|    0.140050|
|         265|           0|   -2.263914|    0.262537|    0.178550|    3.182298|    1.705311|    0.141345|
|         266|           0|   -2.273289|    0.241861|    0.158651|    3.176901|    1.704227|    0.142821|
|         267|           0|   -2.283381|    0.225060|    0.144192|    3.170032|    1.704289|    0.144462|
|         268|           0|   -2.293883|    0.213002|    0.136211|    3.161837|    1.705485|    0.146245|
|         269|           0|   -2.304097|    0.206590|    0.135005|    3.152912|    1.707788|    0.148152|
|         270|           0|   -2.313828|    0.205727|    0.139904|    3.143344|    1.711163|    0.150158|
+-----------------------------------------------------------------------+
|        File Writing Summary       |              Filename             |
+-----------------------------------------------------------------------+
|SU2 restart                        |solution_flow.dat                  |
|Paraview                           |flow.vtu                           |
|Paraview surface                   |surface_flow.vtu                   |
+-----------------------------------------------------------------------+

Writing the forces breakdown file (forces_breakdown.dat).
+-------------------------------------------------------------------------------------------------------+
|  Inner_Iter|   Time_Iter|    rms[Rho]|   rms[RhoU]|   rms[RhoV]|   rms[RhoE]|          CL|          CD|
+-------------------------------------------------------------------------------------------------------+
|         271|           0|   -2.323136|    0.209705|    0.149600|    3.132994|    1.715563|    0.152241|
|         272|           0|   -2.331719|    0.217443|    0.162606|    3.122200|    1.720926|    0.154376|
|         273|           0|   -2.339243|    0.227670|    0.177414|    3.111294|    1.727184|    0.156541|
|         274|           0|   -2.345645|    0.239289|    0.192788|    3.100461|    1.734258|    0.158710|
|         275|           0|   -2.350704|    0.251321|    0.207685|    3.090182|    1.742060|    0.160859|
|         276|           0|   -2.354522|    0.262840|    0.221438|    3.080579|    1.750494|    0.162964|
|         277|           0|   -2.357371|    0.273174|    0.233483|    3.071685|    1.759461|    0.165002|
|         278|           0|   -2.359454|    0.281997|    0.243492|    3.063592|    1.768854|    0.166951|
|         279|           0|   -2.360996|    0.288880|    0.251338|    3.056345|    1.778564|    0.168788|
|         280|           0|   -2.361893|    0.293782|    0.256827|    3.050415|    1.788479|    0.170495|
+-----------------------------------------------------------------------+
|        File Writing Summary       |              Filename             |
+-----------------------------------------------------------------------+
|SU2 restart                        |solution_flow.dat                  |
|Paraview                           |flow.vtu                           |
|Paraview surface                   |surface_flow.vtu                   |
+-----------------------------------------------------------------------+

Writing the forces breakdown file (forces_breakdown.dat).
+-------------------------------------------------------------------------------------------------------+
|  Inner_Iter|   Time_Iter|    rms[Rho]|   rms[RhoU]|   rms[RhoV]|   rms[RhoE]|          CL|          CD|
+-------------------------------------------------------------------------------------------------------+
|         281|           0|   -2.362418|    0.296603|    0.259951|    3.045765|    1.798486|    0.172053|
|         282|           0|   -2.362833|    0.297232|    0.260709|    3.042275|    1.808472|    0.173445|
|         283|           0|   -2.363328|    0.295638|    0.259080|    3.039811|    1.818329|    0.174658|
|         284|           0|   -2.364022|    0.291775|    0.255114|    3.038276|    1.827949|    0.175678|
|         285|           0|   -2.365214|    0.285699|    0.248847|    3.037304|    1.837231|    0.176497|
|         286|           0|   -2.367053|    0.277508|    0.240367|    3.036659|    1.846077|    0.177106|
|         287|           0|   -2.369685|    0.267302|    0.229705|    3.036103|    1.854400|    0.177501|
|         288|           0|   -2.373223|    0.255163|    0.217016|    3.035454|    1.862116|    0.177678|
|         289|           0|   -2.377689|    0.241277|    0.202447|    3.034538|    1.869151|    0.177638|
|         290|           0|   -2.383102|    0.226017|    0.186273|    3.033184|    1.875435|    0.177381|
+-----------------------------------------------------------------------+
|        File Writing Summary       |              Filename             |
+-----------------------------------------------------------------------+
|SU2 restart                        |solution_flow.dat                  |
|Paraview                           |flow.vtu                           |
|Paraview surface                   |surface_flow.vtu                   |
+-----------------------------------------------------------------------+

Writing the forces breakdown file (forces_breakdown.dat).
+-------------------------------------------------------------------------------------------------------+
|  Inner_Iter|   Time_Iter|    rms[Rho]|   rms[RhoU]|   rms[RhoV]|   rms[RhoE]|          CL|          CD|
+-------------------------------------------------------------------------------------------------------+
|         291|           0|   -2.389416|    0.209756|    0.168828|    3.031303|    1.880915|    0.176914|
|         292|           0|   -2.396717|    0.192870|    0.150441|    3.028660|    1.885544|    0.176241|
|         293|           0|   -2.404889|    0.175909|    0.131616|    3.025260|    1.889290|    0.175374|
|         294|           0|   -2.413915|    0.159473|    0.113069|    3.020968|    1.892128|    0.174323|
|         295|           0|   -2.423799|    0.144375|    0.095496|    3.015680|    1.894048|    0.173102|
|         296|           0|   -2.434399|    0.131223|    0.079730|    3.009376|    1.895048|    0.171727|
|         297|           0|   -2.445569|    0.120621|    0.066510|    3.002067|    1.895141|    0.170215|
|         298|           0|   -2.457016|    0.113017|    0.056470|    2.993909|    1.894342|    0.168583|
|         299|           0|   -2.468797|    0.108554|    0.050021|    2.984676|    1.892684|    0.166851|
|         300|           0|   -2.480542|    0.107323|    0.047249|    2.974582|    1.890205|    0.165039|
+-----------------------------------------------------------------------+
|        File Writing Summary       |              Filename             |
+-----------------------------------------------------------------------+
|SU2 restart                        |solution_flow.dat                  |
|Paraview                           |flow.vtu                           |
|Paraview surface                   |surface_flow.vtu                   |
+-----------------------------------------------------------------------+

Writing the forces breakdown file (forces_breakdown.dat).
+-------------------------------------------------------------------------------------------------------+
|  Inner_Iter|   Time_Iter|    rms[Rho]|   rms[RhoU]|   rms[RhoV]|   rms[RhoE]|          CL|          CD|
+-------------------------------------------------------------------------------------------------------+
|         301|           0|   -2.491940|    0.109150|    0.047892|    2.963897|    1.886955|    0.163169|
|         302|           0|   -2.503048|    0.113537|    0.051451|    2.952458|    1.882990|    0.161261|
|         303|           0|   -2.513533|    0.119819|    0.057221|    2.940543|    1.878377|    0.159338|
|         304|           0|   -2.523244|    0.127371|    0.064472|    2.928291|    1.873186|    0.157423|
|         305|           0|   -2.531988|    0.135554|    0.072468|    2.915963|    1.867496|    0.155536|
|         306|           0|   -2.539620|    0.143793|    0.080535|    2.903790|    1.861386|    0.153698|
|         307|           0|   -2.546150|    0.151598|    0.088130|    2.891917|    1.854942|    0.151931|
|         308|           0|   -2.551762|    0.158518|    0.094870|    2.880374|    1.848253|    0.150253|
|         309|           0|   -2.556371|    0.164200|    0.100409|    2.869547|    1.841406|    0.148683|
|         310|           0|   -2.560047|    0.168413|    0.104511|    2.859711|    1.834491|    0.147236|
+-----------------------------------------------------------------------+
|        File Writing Summary       |              Filename             |
+-----------------------------------------------------------------------+
|SU2 restart                        |solution_flow.dat                  |
|Paraview                           |flow.vtu                           |
|Paraview surface                   |surface_flow.vtu                   |
+-----------------------------------------------------------------------+

Writing the forces breakdown file (forces_breakdown.dat).
+-------------------------------------------------------------------------------------------------------+
|  Inner_Iter|   Time_Iter|    rms[Rho]|   rms[RhoU]|   rms[RhoV]|   rms[RhoE]|          CL|          CD|
+-------------------------------------------------------------------------------------------------------+
|         311|           0|   -2.562979|    0.171001|    0.106961|    2.850961|    1.827596|    0.145928|
|         312|           0|   -2.565337|    0.171839|    0.107529|    2.843405|    1.820806|    0.144772|
|         313|           0|   -2.567329|    0.170844|    0.106130|    2.837045|    1.814205|    0.143779|
|         314|           0|   -2.569166|    0.167909|    0.102697|    2.831842|    1.807870|    0.142958|
|         315|           0|   -2.571062|    0.163054|    0.097218|    2.827716|    1.801879|    0.142317|
|         316|           0|   -2.573188|    0.156192|    0.089690|    2.824517|    1.796299|    0.141861|
|         317|           0|   -2.575683|    0.147303|    0.080114|    2.822113|    1.791194|    0.141593|
|         318|           0|   -2.578667|    0.136419|    0.068520|    2.820324|    1.786618|    0.141513|
|         319|           0|   -2.582242|    0.123580|    0.054955|    2.818929|    1.782621|    0.141620|
|         320|           0|   -2.586436|    0.108821|    0.039555|    2.817774|    1.779242|    0.141911|
+-----------------------------------------------------------------------+
|        File Writing Summary       |              Filename             |
+-----------------------------------------------------------------------+
|SU2 restart                        |solution_flow.dat                  |
|Paraview                           |flow.vtu                           |
|Paraview surface                   |surface_flow.vtu                   |
+-----------------------------------------------------------------------+

Writing the forces breakdown file (forces_breakdown.dat).
+-------------------------------------------------------------------------------------------------------+
|  Inner_Iter|   Time_Iter|    rms[Rho]|   rms[RhoU]|   rms[RhoV]|   rms[RhoE]|          CL|          CD|
+-------------------------------------------------------------------------------------------------------+
|         321|           0|   -2.591306|    0.092287|    0.022376|    2.816651|    1.776514|    0.142379|
|         322|           0|   -2.596817|    0.074099|    0.003629|    2.815452|    1.774461|    0.143019|
|         323|           0|   -2.603063|    0.054503|   -0.016388|    2.813918|    1.773101|    0.143819|
|         324|           0|   -2.610019|    0.033584|   -0.037237|    2.811893|    1.772437|    0.144770|
|         325|           0|   -2.617670|    0.011869|   -0.058433|    2.809258|    1.772472|    0.145858|
|         326|           0|   -2.626040|   -0.010194|   -0.079297|    2.805832|    1.773197|    0.147071|
|         327|           0|   -2.635043|   -0.032133|   -0.099138|    2.801550|    1.774596|    0.148393|
|         328|           0|   -2.644552|   -0.053314|   -0.117077|    2.796416|    1.776643|    0.149808|
|         329|           0|   -2.654355|   -0.073116|   -0.132296|    2.790494|    1.779310|    0.151300|
|         330|           0|   -2.664349|   -0.090800|   -0.144074|    2.783733|    1.782558|    0.152852|
+-----------------------------------------------------------------------+
|        File Writing Summary       |              Filename             |
+-----------------------------------------------------------------------+
|SU2 restart                        |solution_flow.dat                  |
|Paraview                           |flow.vtu                           |
|Paraview surface                   |surface_flow.vtu                   |
+-----------------------------------------------------------------------+

Writing the forces breakdown file (forces_breakdown.dat).
+-------------------------------------------------------------------------------------------------------+
|  Inner_Iter|   Time_Iter|    rms[Rho]|   rms[RhoU]|   rms[RhoV]|   rms[RhoE]|          CL|          CD|
+-------------------------------------------------------------------------------------------------------+
|         331|           0|   -2.674276|   -0.105784|   -0.151906|    2.776273|    1.786345|    0.154445|
|         332|           0|   -2.683980|   -0.117510|   -0.155629|    2.768193|    1.790621|    0.156063|
|         333|           0|   -2.693219|   -0.125831|   -0.155435|    2.759654|    1.795334|    0.157687|
|         334|           0|   -2.701686|   -0.130485|   -0.151807|    2.750895|    1.800425|    0.159300|
|         335|           0|   -2.709415|   -0.131714|   -0.145538|    2.741902|    1.805839|    0.160885|
|         336|           0|   -2.716397|   -0.130037|   -0.137445|    2.732699|    1.811509|    0.162425|
|         337|           0|   -2.722531|   -0.126119|   -0.128318|    2.723489|    1.817373|    0.163904|
|         338|           0|   -2.727676|   -0.120732|   -0.118900|    2.714553|    1.823367|    0.165309|
|         339|           0|   -2.732062|   -0.114524|   -0.109813|    2.705814|    1.829426|    0.166623|
|         340|           0|   -2.735745|   -0.108248|   -0.101472|    2.697412|    1.835484|    0.167836|
+-----------------------------------------------------------------------+
|        File Writing Summary       |              Filename             |
+-----------------------------------------------------------------------+
|SU2 restart                        |solution_flow.dat                  |
|Paraview                           |flow.vtu                           |
|Paraview surface                   |surface_flow.vtu                   |
+-----------------------------------------------------------------------+

Writing the forces breakdown file (forces_breakdown.dat).
+-------------------------------------------------------------------------------------------------------+
|  Inner_Iter|   Time_Iter|    rms[Rho]|   rms[RhoU]|   rms[RhoV]|   rms[RhoE]|          CL|          CD|
+-------------------------------------------------------------------------------------------------------+
|         341|           0|   -2.738815|   -0.102435|   -0.094199|    2.689461|    1.841480|    0.168936|
|         342|           0|   -2.741405|   -0.097443|   -0.088226|    2.682067|    1.847353|    0.169911|
|         343|           0|   -2.743641|   -0.093539|   -0.083697|    2.675335|    1.853045|    0.170755|
|         344|           0|   -2.745721|   -0.090885|   -0.080698|    2.669270|    1.858498|    0.171460|
|         345|           0|   -2.747794|   -0.089580|   -0.079282|    2.663885|    1.863663|    0.172020|
|         346|           0|   -2.750114|   -0.089671|   -0.079439|    2.659024|    1.868492|    0.172433|
|         347|           0|   -2.752872|   -0.091198|   -0.081152|    2.654541|    1.872942|    0.172697|
|         348|           0|   -2.756143|   -0.094136|   -0.084356|    2.650405|    1.876978|    0.172810|
|         349|           0|   -2.760017|   -0.098497|   -0.088961|    2.646510|    1.880566|    0.172775|
|         350|           0|   -2.764610|   -0.104220|   -0.094852|    2.642718|    1.883681|    0.172595|
+-----------------------------------------------------------------------+
[...]
|         905|           0|   -4.249557|   -1.647466|   -1.771876|    1.246320|    1.918189|    0.162071|
|         906|           0|   -4.152567|   -1.358803|   -1.708724|    1.378201|    1.918198|    0.162073|
|         907|           0|   -4.057704|   -1.140182|   -1.623211|    1.499285|    1.918208|    0.162076|
|         908|           0|   -4.249744|   -1.246994|   -1.669569|    1.321184|    1.918219|    0.162078|
|         909|           0|   -4.410749|   -1.352987|   -1.717278|    1.151481|    1.918232|    0.162082|
|         910|           0|   -4.489296|   -1.454909|   -1.755962|    1.023083|    1.918245|    0.162085|
+-----------------------------------------------------------------------+
|        File Writing Summary       |              Filename             |
+-----------------------------------------------------------------------+
|SU2 restart                        |solution_flow.dat                  |
|Paraview                           |flow.vtu                           |
|Paraview surface                   |surface_flow.vtu                   |
+-----------------------------------------------------------------------+

Writing the forces breakdown file (forces_breakdown.dat).
+-------------------------------------------------------------------------------------------------------+
|  Inner_Iter|   Time_Iter|    rms[Rho]|   rms[RhoU]|   rms[RhoV]|   rms[RhoE]|          CL|          CD|
+-------------------------------------------------------------------------------------------------------+
|         911|           0|   -4.499406|   -1.550429|   -1.784782|    0.959493|    1.918259|    0.162088|
|         912|           0|   -4.495894|   -1.637719|   -1.805807|    0.936817|    1.918274|    0.162091|
|         913|           0|   -4.504879|   -1.713908|   -1.820852|    0.919737|    1.918289|    0.162095|
|         914|           0|   -4.531088|   -1.775104|   -1.831350|    0.892702|    1.918305|    0.162098|
|         915|           0|   -4.573088|   -1.818852|   -1.838708|    0.852799|    1.918321|    0.162101|
|         916|           0|   -4.625332|   -1.847623|   -1.844490|    0.804735|    1.918337|    0.162105|
|         917|           0|   -4.685341|   -1.867143|   -1.849949|    0.750351|    1.918354|    0.162108|
|         918|           0|   -4.622676|   -1.977707|   -1.855585|    0.842603|    1.918371|    0.162112|
|         919|           0|   -4.509417|   -1.767066|   -1.846718|    1.002763|    1.918389|    0.162115|
|         920|           0|   -4.418424|   -1.530353|   -1.817218|    1.127665|    1.918406|    0.162118|
+-----------------------------------------------------------------------+
|        File Writing Summary       |              Filename             |
+-----------------------------------------------------------------------+
|SU2 restart                        |solution_flow.dat                  |
|Paraview                           |flow.vtu                           |
|Paraview surface                   |surface_flow.vtu                   |
+-----------------------------------------------------------------------+

Writing the forces breakdown file (forces_breakdown.dat).
+-------------------------------------------------------------------------------------------------------+
|  Inner_Iter|   Time_Iter|    rms[Rho]|   rms[RhoU]|   rms[RhoV]|   rms[RhoE]|          CL|          CD|
+-------------------------------------------------------------------------------------------------------+
|         921|           0|   -4.364276|   -1.381096|   -1.776928|    1.204919|    1.918424|    0.162122|
|         922|           0|   -4.350134|   -1.298098|   -1.742557|    1.235159|    1.918442|    0.162125|
|         923|           0|   -4.373149|   -1.266384|   -1.726032|    1.221268|    1.918460|    0.162128|
|         924|           0|   -4.421475|   -1.276673|   -1.732016|    1.168734|    1.918477|    0.162130|
|         925|           0|   -4.472135|   -1.324120|   -1.759729|    1.086553|    1.918495|    0.162132|
|         926|           0|   -4.491731|   -1.409931|   -1.802745|    0.999543|    1.918511|    0.162134|
|         927|           0|   -4.461414|   -1.545569|   -1.846565|    0.968889|    1.918527|    0.162136|
|         928|           0|   -4.395386|   -1.754930|   -1.869233|    1.036276|    1.918543|    0.162137|
|         929|           0|   -4.312889|   -1.868903|   -1.854293|    1.156007|    1.918559|    0.162138|
|         930|           0|   -4.221599|   -1.563702|   -1.800726|    1.286599|    1.918574|    0.162139|
+-----------------------------------------------------------------------+
|        File Writing Summary       |              Filename             |
+-----------------------------------------------------------------------+
|SU2 restart                        |solution_flow.dat                  |
|Paraview                           |flow.vtu                           |
|Paraview surface                   |surface_flow.vtu                   |
+-----------------------------------------------------------------------+

Writing the forces breakdown file (forces_breakdown.dat).
+-------------------------------------------------------------------------------------------------------+
|  Inner_Iter|   Time_Iter|    rms[Rho]|   rms[RhoU]|   rms[RhoV]|   rms[RhoE]|          CL|          CD|
+-------------------------------------------------------------------------------------------------------+
|         931|           0|   -4.121350|   -1.285110|   -1.714149|    1.419003|    1.918588|    0.162140|
|         932|           0|   -4.105704|   -1.166481|   -1.659173|    1.456227|    1.918602|    0.162140|
|         933|           0|   -4.297085|   -1.274230|   -1.712745|    1.277023|    1.918616|    0.162141|
|         934|           0|   -4.443836|   -1.381009|   -1.765706|    1.112527|    1.918628|    0.162140|
|         935|           0|   -4.500695|   -1.483872|   -1.808988|    0.998786|    1.918641|    0.162140|
|         936|           0|   -4.501331|   -1.580806|   -1.841988|    0.949600|    1.918652|    0.162139|
|         937|           0|   -4.498721|   -1.669746|   -1.866385|    0.931371|    1.918663|    0.162139|
|         938|           0|   -4.511091|   -1.747069|   -1.883636|    0.913308|    1.918673|    0.162137|
|         939|           0|   -4.540838|   -1.808121|   -1.895193|    0.883691|    1.918683|    0.162136|
|         940|           0|   -4.585319|   -1.850559|   -1.902792|    0.841931|    1.918691|    0.162135|
+-----------------------------------------------------------------------+
|        File Writing Summary       |              Filename             |
+-----------------------------------------------------------------------+
|SU2 restart                        |solution_flow.dat                  |
|Paraview                           |flow.vtu                           |
|Paraview surface                   |surface_flow.vtu                   |
+-----------------------------------------------------------------------+

Writing the forces breakdown file (forces_breakdown.dat).
+-------------------------------------------------------------------------------------------------------+
|  Inner_Iter|   Time_Iter|    rms[Rho]|   rms[RhoU]|   rms[RhoV]|   rms[RhoE]|          CL|          CD|
+-------------------------------------------------------------------------------------------------------+
|         941|           0|   -4.640043|   -1.877841|   -1.908445|    0.791577|    1.918699|    0.162133|
|         942|           0|   -4.700588|   -1.896511|   -1.913709|    0.736985|    1.918706|    0.162131|
|         943|           0|   -4.596421|   -2.003596|   -1.916708|    0.879297|    1.918713|    0.162129|
|         944|           0|   -4.484339|   -1.718992|   -1.896055|    1.036219|    1.918719|    0.162127|
|         945|           0|   -4.400428|   -1.493455|   -1.851433|    1.151370|    1.918724|    0.162125|
|         946|           0|   -4.354718|   -1.357817|   -1.800664|    1.218525|    1.918729|    0.162123|
|         947|           0|   -4.349411|   -1.286138|   -1.762855|    1.238762|    1.918734|    0.162120|
|         948|           0|   -4.379919|   -1.263979|   -1.748236|    1.215607|    1.918737|    0.162118|
|         949|           0|   -4.432410|   -1.282639|   -1.759702|    1.154951|    1.918741|    0.162116|
|         950|           0|   -4.480586|   -1.338322|   -1.795319|    1.067545|    1.918746|    0.162114|
+-----------------------------------------------------------------------+
|        File Writing Summary       |              Filename             |
+-----------------------------------------------------------------------+
|SU2 restart                        |solution_flow.dat                  |
|Paraview                           |flow.vtu                           |
|Paraview surface                   |surface_flow.vtu                   |
+-----------------------------------------------------------------------+

Writing the forces breakdown file (forces_breakdown.dat).
+-------------------------------------------------------------------------------------------------------+
|  Inner_Iter|   Time_Iter|    rms[Rho]|   rms[RhoU]|   rms[RhoV]|   rms[RhoE]|          CL|          CD|
+-------------------------------------------------------------------------------------------------------+
|         951|           0|   -4.490871|   -1.434052|   -1.847201|    0.984503|    1.918749|    0.162112|
|         952|           0|   -4.450851|   -1.584981|   -1.897078|    0.973659|    1.918752|    0.162110|
|         953|           0|   -4.379757|   -1.814625|   -1.916813|    1.057910|    1.918755|    0.162109|
|         954|           0|   -4.293968|   -1.830220|   -1.888722|    1.183523|    1.918758|    0.162107|
|         955|           0|   -4.200874|   -1.500110|   -1.816850|    1.314835|    1.918761|    0.162105|
|         956|           0|   -4.098519|   -1.234899|   -1.712930|    1.447622|    1.918763|    0.162103|
|         957|           0|   -4.144390|   -1.187455|   -1.688175|    1.421113|    1.918766|    0.162102|
|         958|           0|   -4.332781|   -1.295521|   -1.748329|    1.242009|    1.918769|    0.162101|
|         959|           0|   -4.465124|   -1.402206|   -1.806264|    1.083402|    1.918772|    0.162101|
|         960|           0|   -4.506091|   -1.504837|   -1.853812|    0.982501|    1.918775|    0.162100|
+-----------------------------------------------------------------------+
|        File Writing Summary       |              Filename             |
+-----------------------------------------------------------------------+
|SU2 restart                        |solution_flow.dat                  |
|Paraview                           |flow.vtu                           |
|Paraview surface                   |surface_flow.vtu                   |
+-----------------------------------------------------------------------+

Writing the forces breakdown file (forces_breakdown.dat).
+-------------------------------------------------------------------------------------------------------+
|  Inner_Iter|   Time_Iter|    rms[Rho]|   rms[RhoU]|   rms[RhoV]|   rms[RhoE]|          CL|          CD|
+-------------------------------------------------------------------------------------------------------+
|         961|           0|   -4.502911|   -1.601688|   -1.890480|    0.942446|    1.918779|    0.162100|
|         962|           0|   -4.502214|   -1.690624|   -1.917619|    0.926320|    1.918783|    0.162099|
|         963|           0|   -4.518347|   -1.767691|   -1.936512|    0.906099|    1.918786|    0.162099|
|         964|           0|   -4.551916|   -1.828014|   -1.948774|    0.873296|    1.918790|    0.162099|
|         965|           0|   -4.600371|   -1.869669|   -1.956608|    0.827684|    1.918795|    0.162100|
|         966|           0|   -4.658597|   -1.896774|   -1.962470|    0.773863|    1.918801|    0.162101|
|         967|           0|   -4.692721|   -1.962290|   -1.968905|    0.749245|    1.918807|    0.162101|
|         968|           0|   -4.577840|   -1.974913|   -1.966180|    0.909410|    1.918814|    0.162102|
|         969|           0|   -4.468919|   -1.667104|   -1.932106|    1.060466|    1.918820|    0.162103|
|         970|           0|   -4.391652|   -1.461290|   -1.874522|    1.166260|    1.918829|    0.162105|
+-----------------------------------------------------------------------+
|        File Writing Summary       |              Filename             |
+-----------------------------------------------------------------------+
|SU2 restart                        |solution_flow.dat                  |
|Paraview                           |flow.vtu                           |
|Paraview surface                   |surface_flow.vtu                   |
+-----------------------------------------------------------------------+

Writing the forces breakdown file (forces_breakdown.dat).
+-------------------------------------------------------------------------------------------------------+
|  Inner_Iter|   Time_Iter|    rms[Rho]|   rms[RhoU]|   rms[RhoV]|   rms[RhoE]|          CL|          CD|
+-------------------------------------------------------------------------------------------------------+
|         971|           0|   -4.354078|   -1.340412|   -1.817712|    1.223570|    1.918836|    0.162106|
|         972|           0|   -4.356739|   -1.280024|   -1.780267|    1.234390|    1.918844|    0.162107|
|         973|           0|   -4.393343|   -1.267005|   -1.770023|    1.202723|    1.918852|    0.162109|
|         974|           0|   -4.447213|   -1.293657|   -1.788419|    1.135227|    1.918861|    0.162111|
|         975|           0|   -4.489568|   -1.357494|   -1.832774|    1.044780|    1.918869|    0.162112|
|         976|           0|   -4.488011|   -1.463827|   -1.893696|    0.970903|    1.918878|    0.162114|
|         977|           0|   -4.438761|   -1.632468|   -1.947883|    0.982806|    1.918888|    0.162116|
|         978|           0|   -4.362951|   -1.878683|   -1.959981|    1.081785|    1.918897|    0.162118|
|         979|           0|   -4.275922|   -1.772706|   -1.913946|    1.209763|    1.918906|    0.162120|
|         980|           0|   -4.180970|   -1.440753|   -1.822411|    1.341651|    1.918916|    0.162122|
+-----------------------------------------------------------------------+
|        File Writing Summary       |              Filename             |
+-----------------------------------------------------------------------+
|SU2 restart                        |solution_flow.dat                  |
|Paraview                           |flow.vtu                           |
|Paraview surface                   |surface_flow.vtu                   |
+-----------------------------------------------------------------------+

Writing the forces breakdown file (forces_breakdown.dat).
+-------------------------------------------------------------------------------------------------------+
|  Inner_Iter|   Time_Iter|    rms[Rho]|   rms[RhoU]|   rms[RhoV]|   rms[RhoE]|          CL|          CD|
+-------------------------------------------------------------------------------------------------------+
|         981|           0|   -4.077464|   -1.189192|   -1.703884|    1.473904|    1.918925|    0.162123|
|         982|           0|   -4.189902|   -1.213846|   -1.716883|    1.378922|    1.918935|    0.162125|
|         983|           0|   -4.370983|   -1.322381|   -1.782902|    1.201538|    1.918944|    0.162127|
|         984|           0|   -4.482892|   -1.429168|   -1.845094|    1.052510|    1.918955|    0.162129|
|         985|           0|   -4.508676|   -1.531917|   -1.896857|    0.966454|    1.918964|    0.162130|
|         986|           0|   -4.503644|   -1.629130|   -1.937928|    0.934982|    1.918975|    0.162132|
|         987|           0|   -4.506661|   -1.718447|   -1.969125|    0.919117|    1.918984|    0.162134|
|         988|           0|   -4.526762|   -1.795339|   -1.991216|    0.896626|    1.918994|    0.162135|
|         989|           0|   -4.564572|   -1.854627|   -2.005765|    0.860175|    1.919003|    0.162136|
|         990|           0|   -4.616315|   -1.895149|   -2.015306|    0.811721|    1.919013|    0.162137|
+-----------------------------------------------------------------------+
|        File Writing Summary       |              Filename             |
+-----------------------------------------------------------------------+
|SU2 restart                        |solution_flow.dat                  |
|Paraview                           |flow.vtu                           |
|Paraview surface                   |surface_flow.vtu                   |
+-----------------------------------------------------------------------+

Writing the forces breakdown file (forces_breakdown.dat).
+-------------------------------------------------------------------------------------------------------+
|  Inner_Iter|   Time_Iter|    rms[Rho]|   rms[RhoU]|   rms[RhoV]|   rms[RhoE]|          CL|          CD|
+-------------------------------------------------------------------------------------------------------+
|         991|           0|   -4.676317|   -1.921748|   -2.022664|    0.756909|    1.919022|    0.162138|
|         992|           0|   -4.665838|   -2.055845|   -2.030606|    0.786150|    1.919031|    0.162139|
|         993|           0|   -4.548473|   -1.910898|   -2.016326|    0.951730|    1.919040|    0.162139|
|         994|           0|   -4.446465|   -1.609103|   -1.962484|    1.091876|    1.919048|    0.162140|
|         995|           0|   -4.379140|   -1.426229|   -1.890672|    1.184885|    1.919056|    0.162140|
|         996|           0|   -4.352227|   -1.322038|   -1.829753|    1.229802|    1.919065|    0.162140|
|         997|           0|   -4.364804|   -1.274693|   -1.795018|    1.229062|    1.919072|    0.162140|
|         998|           0|   -4.408079|   -1.272439|   -1.791200|    1.187395|    1.919080|    0.162140|
|         999|           0|   -4.462632|   -1.308848|   -1.818190|    1.112113|    1.919087|    0.162140|

----------------------------- Solver Exit -------------------------------

Maximum number of iterations reached (ITER = 1000) before convergence.
+-----------------------------------------------------------------------+
|      Convergence Field     |     Value    |   Criterion  |  Converged |
+-----------------------------------------------------------------------+
|                  Cauchy[CD]|   9.82725e-06|       < 1e-10|          No|
+-----------------------------------------------------------------------+
-------------------------------------------------------------------------
+-----------------------------------------------------------------------+
|        File Writing Summary       |              Filename             |
+-----------------------------------------------------------------------+
|SU2 restart                        |solution_flow.dat                  |
|Paraview                           |flow.vtu                           |
|Paraview surface                   |surface_flow.vtu                   |
+-----------------------------------------------------------------------+

Writing the forces breakdown file (forces_breakdown.dat).

------------------------- Solver Postprocessing -------------------------
Deleted CNumerics container.
Deleted CIntegration container.
Deleted CSolver container.
Deleted CIteration container.
Deleted CInterpolator container.
Deleted CInterface container.
Deleted CGeometry container.
Deleted CFreeFormDefBox class.
Deleted CSurfaceMovement class.
Deleted CVolumetricMovement class.
Deleted CConfig container.
Deleted nInst container.
Deleted COutput class.
-------------------------------------------------------------------------

------------------------- Exit Success (SU2_CFD) ------------------------

