
-------------------------------------------------------------------------
|    ___ _   _ ___                                                      |
|   / __| | | |_  )   Release 7.0.3 "Blackbird"                         |
|   \__ \ |_| |/ /                                                      |
|   |___/\___//___|   Suite (Computational Fluid Dynamics Code)         |
|                                                                       |
-------------------------------------------------------------------------
| SU2 Project Website: https://su2code.github.io                        |
|                                                                       |
| The SU2 Project is maintained by the SU2 Foundation                   |
| (http://su2foundation.org)                                            |
-------------------------------------------------------------------------
| Copyright 2012-2020, SU2 Contributors                                 |
|                                                                       |
| SU2 is free software; you can redistribute it and/or                  |
| modify it under the terms of the GNU Lesser General Public            |
| License as published by the Free Software Foundation; either          |
| version 2.1 of the License, or (at your option) any later version.    |
|                                                                       |
| SU2 is distributed in the hope that it will be useful,                |
| but WITHOUT ANY WARRANTY; without even the implied warranty of        |
| MERCHANTABILITY or FITNESS FOR A PARTICULAR PURPOSE. See the GNU      |
| Lesser General Public License for more details.                       |
|                                                                       |
| You should have received a copy of the GNU Lesser General Public      |
| License along with SU2. If not, see <http://www.gnu.org/licenses/>.   |
-------------------------------------------------------------------------

Parsing config file for zone 0

----------------- Physical Case Definition ( Zone 0 ) -------------------
Compressible Euler equations.
Mach number: 0.294.
Angle of attack (AoA): 10 deg, and angle of sideslip (AoS): 0 deg.
No restart solution, use the values at infinity (freestream).
Dimensional simulation.
The reference area is 10 m^2.
The semi-span will be computed using the max y(3D) value.
The reference length is 1 m.
Reference origin for moment evaluation is (0, 0, 0).
Surface(s) where the force coefficients are evaluated: Wing_1.

Surface(s) where the objective function is evaluated: airfoil.
Surface(s) plotted in the output file: Wing_1.
Surface(s) to be analyzed in detail: airfoil.
Surface(s) affected by the design variables: Wing_1.
Input mesh file name: deformed.su2

--------------- Space Numerical Integration ( Zone 0 ) ------------------
Roe (with entropy fix = 0) solver for the flow inviscid terms.
Roe with DDES's FD low-dissipation function.
Second order integration in space, with slope limiter.
Venkatakrishnan slope-limiting method, with constant: 0.05. 
The reference element size is: 1. 
Gradient for upwind reconstruction: Green-Gauss.
Gradient for viscous and source terms: Green-Gauss.

--------------- Time Numerical Integration  ( Zone 0 ) ------------------
Local time stepping (steady state simulation).
Euler implicit method for the flow equations.
FGMRES is used for solving the linear system.
Using a ILU(0) preconditioning.
Convergence criteria of the linear solver: 1e-06.
Max number of linear iterations: 5.
V Multigrid Cycle, with 3 multigrid levels.
Damping factor for the residual restriction: 0.75.
Damping factor for the correction prolongation: 0.75.
No CFL adaptation.
+-------------------------------------------+
|  MG Level| Presmooth|PostSmooth|CorrectSmo|
+-------------------------------------------+
|         0|         1|         0|         0|
|         1|         2|         0|         0|
|         2|         3|         0|         0|
|         3|         3|         0|         0|
+-------------------------------------------+
Courant-Friedrichs-Lewy number:        1

------------------ Convergence Criteria  ( Zone 0 ) ---------------------
Maximum number of solver subiterations: 1000.
Begin convergence monitoring at iteration 10.
Residual minimum value: 1e-8.
Cauchy series min. value: 1e-10.
Number of Cauchy elements: 100.
Begin windowed time average at iteration 15.

-------------------- Output Information ( Zone 0 ) ----------------------
Writing solution files every 10 iterations.
Writing the convergence history file every 1 inner iterations.
Writing the screen convergence history every 1 inner iterations.
The tabular file format is Tecplot (.dat).
Convergence history file name: history.
Forces breakdown file name: forces_breakdown.dat.
Surface file name: surface_flow.
Volume file name: flow.
Restart file name: solution_flow.dat.

------------- Config File Boundary Information ( Zone 0 ) ---------------
+-----------------------------------------------------------------------+
|                        Marker Type|                        Marker Name|
+-----------------------------------------------------------------------+
|                         Euler wall|                             Wing_1|
+-----------------------------------------------------------------------+
|                          Far-field|                           Farfield|
+-----------------------------------------------------------------------+
|                     Symmetry plane|                                  0|
+-----------------------------------------------------------------------+
|           Deformable mesh boundary|                            airfoil|
+-----------------------------------------------------------------------+

-------------------- Output Preprocessing ( Zone 0 ) --------------------
Screen output fields: INNER_ITER, TIME_ITER, RMS_DENSITY, RMS_MOMENTUM-X, RMS_MOMENTUM-Y, RMS_ENERGY, LIFT, DRAG
  Info: Ignoring the following history output groups:
  TIME_ITER
History output group(s): ITER, RMS_RES, AERO_COEFF
Warning: No (valid) fields chosen for convergence monitoring. Convergence monitoring inactive.
Warning: No (valid) fields chosen for time convergence monitoring. Time convergence monitoring inactive.
Volume output fields: COORDINATES, SOLUTION, PRIMITIVE

------------------- Geometry Preprocessing ( Zone 0 ) -------------------
Three dimensional problem.
142678 grid points before partitioning.
739205 volume elements before partitioning.
2 surface markers.
99234 boundary elements in index 0 (Marker = Wing_1).
1280 boundary elements in index 1 (Marker = Farfield).
Executing the partitioning functions.
Building the graph adjacency structure.
Calling ParMETIS... graph partitioning complete (18884 edge cuts).
Distributing ParMETIS coloring.
Rebalancing vertices.
Rebalancing volume element connectivity.
Rebalancing markers and surface elements.
153425 vertices including ghost points. 
767118 interior elements including halo cells. 
767118 tetrahedra.
Establishing MPI communication patterns.
Setting point connectivity.
Renumbering points (Reverse Cuthill McKee Ordering).
Recomputing point connectivity.
Setting element connectivity.
Checking the numerical grid orientation.
Identifying edges and vertices.
Computing centers of gravity.
Setting the control volume structure.
Volume of the computational grid: 587310.
Searching for the closest normal neighbors to the surfaces.
Storing a mapping from global to local point index.
Compute the surface curvature.
Max K: 952.735. Mean K: 12.8943. Standard deviation K: 55.0498.
Checking for periodicity.
Computing mesh quality statistics for the dual control volumes.
+--------------------------------------------------------------+
|           Mesh Quality Metric|        Minimum|        Maximum|
+--------------------------------------------------------------+
|    Orthogonality Angle (deg.)|        46.8214|        85.7534|
|     CV Face Area Aspect Ratio|        1.42583|        38.0663|
|           CV Sub-Volume Ratio|        1.02918|        141.897|
+--------------------------------------------------------------+
Setting the multigrid structure.
+-------------------------------------------+
|  MG Level|       CVs|Aggl. Rate|       CFL|
+-------------------------------------------+
|         0|    153425|    1/1.00|         1|
|         1|     27876|     1/5.5|  0.849577|
|         2|      6802|     1/4.1|  0.796335|
Finding max control volume width.
Communicating number of neighbors.
Semi-span length = 5.01379 m.
Wetted area = 42.2864 m^2.
Area projection in the x-plane = 3.061 m^2, y-plane = 1.36047 m^2, z-plane = 20.1608 m^2.
Max. coordinate in the x-direction = 1.02184 m, y-direction = 5.01379 m, z-direction = 0.432833 m.
Min. coordinate in the x-direction = -1.01843 m, y-direction = -5.01393 m, z-direction = -0.120806 m.
Checking if Euler & Symmetry markers are straight/plane:
Boundary marker Wing_1 is NOT a single plane.
Boundary marker 0 is a single plane.

-------------------- Solver Preprocessing ( Zone 0 ) --------------------
Inviscid flow: Computing density based on free-stream
temperature and pressure using the ideal gas law.
Force coefficients computed using free-stream values.

-- Models:
+------------------------------------------------------------------------------+
|          Viscosity Model|        Conductivity Model|              Fluid Model|
+------------------------------------------------------------------------------+
|                        -|                         -|             STANDARD_AIR|
+------------------------------------------------------------------------------+
-- Fluid properties:
+------------------------------------------------------------------------------+
|                  Name|    Dim. value|    Ref. value|      Unit|Non-dim. value|
+------------------------------------------------------------------------------+
|          Gas Constant|       287.058|             1|  N.m/kg.K|       287.058|
|      Spec. Heat Ratio|             -|             -|         -|           1.4|
+------------------------------------------------------------------------------+
-- Initial and free-stream conditions:
+------------------------------------------------------------------------------+
|                  Name|    Dim. value|    Ref. value|      Unit|Non-dim. value|
+------------------------------------------------------------------------------+
|       Static Pressure|        101325|             1|        Pa|        101325|
|               Density|       1.22498|             1|    kg/m^3|       1.22498|
|           Temperature|        288.15|             1|         K|        288.15|
|          Total Energy|        211794|             1|   m^2/s^2|        211794|
|            Velocity-X|       98.5274|             1|       m/s|       98.5274|
|            Velocity-Y|             0|             1|       m/s|             0|
|            Velocity-Z|        17.373|             1|       m/s|        17.373|
|    Velocity Magnitude|       100.047|             1|       m/s|       100.047|
+------------------------------------------------------------------------------+
|           Mach Number|             -|             -|         -|         0.294|
+------------------------------------------------------------------------------+
Initialize Jacobian structure (Euler). MG level: 0.
Initialize Jacobian structure (Euler). MG level: 1.
Initialize Jacobian structure (Euler). MG level: 2.

------------------- Numerics Preprocessing ( Zone 0 ) -------------------

----------------- Integration Preprocessing ( Zone 0 ) ------------------

------------------- Iteration Preprocessing ( Zone 0 ) ------------------
Euler/Navier-Stokes/RANS fluid iteration.

------------------------------ Begin Solver -----------------------------

Simulation Run using the Single-zone Driver
+-------------------------------------------------------------------------------------------------------+
|  Inner_Iter|   Time_Iter|    rms[Rho]|   rms[RhoU]|   rms[RhoV]|   rms[RhoE]|          CL|          CD|
+-------------------------------------------------------------------------------------------------------+
|           0|           0|   -1.671599|    0.497315|   -0.419426|    3.797501|    2.037136|    0.915556|
|           1|           0|   -1.779639|    0.407053|   -0.155520|    3.689757|    3.548010|    1.580526|
|           2|           0|   -1.782655|    0.437737|    0.038846|    3.688467|    4.602475|    2.028708|
|           3|           0|   -1.728701|    0.522589|    0.155885|    3.743202|    5.281606|    2.297560|
|           4|           0|   -1.666167|    0.618390|    0.251152|    3.806114|    5.661710|    2.422730|
|           5|           0|   -1.608041|    0.714877|    0.343089|    3.864798|    5.811828|    2.437577|
|           6|           0|   -1.554616|    0.809649|    0.436143|    3.919011|    5.791060|    2.371543|
|           7|           0|   -1.504875|    0.900840|    0.529873|    3.969664|    5.649031|    2.249625|
|           8|           0|   -1.458603|    0.986952|    0.622761|    4.016863|    5.427370|    2.092823|
|           9|           0|   -1.416138|    1.066828|    0.713223|    4.060171|    5.159853|    1.918312|
|          10|           0|   -1.378242|    1.139894|    0.800008|    4.098759|    4.870878|    1.738878|
+-----------------------------------------------------------------------+
|        File Writing Summary       |              Filename             |
+-----------------------------------------------------------------------+
|SU2 restart                        |solution_flow.dat                  |
|Paraview                           |flow.vtu                           |
|Paraview surface                   |surface_flow.vtu                   |
+-----------------------------------------------------------------------+

Writing the forces breakdown file (forces_breakdown.dat).
+-------------------------------------------------------------------------------------------------------+
|  Inner_Iter|   Time_Iter|    rms[Rho]|   rms[RhoU]|   rms[RhoV]|   rms[RhoE]|          CL|          CD|
+-------------------------------------------------------------------------------------------------------+
|          11|           0|   -1.345357|    1.205973|    0.882159|    4.132122|    4.576630|    1.563062|
|          12|           0|   -1.318077|    1.265002|    0.958991|    4.159569|    4.287736|    1.396460|
|          13|           0|   -1.296615|    1.317087|    1.029966|    4.180765|    4.010261|    1.242110|
|          14|           0|   -1.280996|    1.362396|    1.094687|    4.195523|    3.746558|    1.100957|
|          15|           0|   -1.271014|    1.401103|    1.153042|    4.203854|    3.496440|    0.972554|
|          16|           0|   -1.266068|    1.433390|    1.204945|    4.206095|    3.258037|    0.855574|
|          17|           0|   -1.265063|    1.459395|    1.250408|    4.203081|    3.028709|    0.748266|
|          18|           0|   -1.266242|    1.479306|    1.289452|    4.196408|    2.805564|    0.648768|
|          19|           0|   -1.267056|    1.493300|    1.322091|    4.188775|    2.585922|    0.555329|
|          20|           0|   -1.264728|    1.501636|    1.348502|    4.183682|    2.367632|    0.466481|
+-----------------------------------------------------------------------+
|        File Writing Summary       |              Filename             |
+-----------------------------------------------------------------------+
|SU2 restart                        |solution_flow.dat                  |
|Paraview                           |flow.vtu                           |
|Paraview surface                   |surface_flow.vtu                   |
+-----------------------------------------------------------------------+

Writing the forces breakdown file (forces_breakdown.dat).
+-------------------------------------------------------------------------------------------------------+
|  Inner_Iter|   Time_Iter|    rms[Rho]|   rms[RhoU]|   rms[RhoV]|   rms[RhoE]|          CL|          CD|
+-------------------------------------------------------------------------------------------------------+
|          21|           0|   -1.256728|    1.504545|    1.368791|    4.185023|    2.149211|    0.381094|
|          22|           0|   -1.241521|    1.502463|    1.383182|    4.195965|    1.930016|    0.298432|
|          23|           0|   -1.219829|    1.496266|    1.391872|    4.216744|    1.710176|    0.218138|
|          24|           0|   -1.194018|    1.486191|    1.395330|    4.244561|    1.490568|    0.140201|
|          25|           0|   -1.167099|    1.473131|    1.393954|    4.275376|    1.272650|    0.064892|
|          26|           0|   -1.141659|    1.458194|    1.388213|    4.305563|    1.058322|   -0.007319|
|          27|           0|   -1.119748|    1.442449|    1.378545|    4.332239|    0.849780|   -0.075839|
|          28|           0|   -1.102452|    1.426711|    1.365902|    4.353861|    0.649306|   -0.140025|
|          29|           0|   -1.090090|    1.411427|    1.350710|    4.369911|    0.459178|   -0.199232|
|          30|           0|   -1.082817|    1.396955|    1.333570|    4.380029|    0.281534|   -0.252865|
+-----------------------------------------------------------------------+
|        File Writing Summary       |              Filename             |
+-----------------------------------------------------------------------+
|SU2 restart                        |solution_flow.dat                  |
|Paraview                           |flow.vtu                           |
|Paraview surface                   |surface_flow.vtu                   |
+-----------------------------------------------------------------------+

Writing the forces breakdown file (forces_breakdown.dat).
+-------------------------------------------------------------------------------------------------------+
|  Inner_Iter|   Time_Iter|    rms[Rho]|   rms[RhoU]|   rms[RhoV]|   rms[RhoE]|          CL|          CD|
+-------------------------------------------------------------------------------------------------------+
|          31|           0|   -1.079648|    1.383494|    1.314699|    4.385110|    0.118342|   -0.300402|
|          32|           0|   -1.079424|    1.371701|    1.294823|    4.386221|   -0.028668|   -0.341422|
|          33|           0|   -1.080688|    1.362922|    1.274228|    4.384841|   -0.158024|   -0.375621|
|          34|           0|   -1.080877|    1.357518|    1.253939|    4.383427|   -0.268517|   -0.402789|
|          35|           0|   -1.078130|    1.356500|    1.234751|    4.384152|   -0.359208|   -0.422820|
|          36|           0|   -1.072057|    1.361098|    1.220291|    4.387920|   -0.429420|   -0.435701|
|          37|           0|   -1.062449|    1.372995|    1.213493|    4.395466|   -0.478727|   -0.441501|
|          38|           0|   -1.050721|    1.392349|    1.218984|    4.405515|   -0.506907|   -0.440351|
|          39|           0|   -1.038350|    1.417717|    1.238360|    4.416879|   -0.513934|   -0.432434|
|          40|           0|   -1.027316|    1.445589|    1.269641|    4.427343|   -0.499973|   -0.417979|
+-----------------------------------------------------------------------+
|        File Writing Summary       |              Filename             |
+-----------------------------------------------------------------------+
|SU2 restart                        |solution_flow.dat                  |
|Paraview                           |flow.vtu                           |
|Paraview surface                   |surface_flow.vtu                   |
+-----------------------------------------------------------------------+

Writing the forces breakdown file (forces_breakdown.dat).
+-------------------------------------------------------------------------------------------------------+
|  Inner_Iter|   Time_Iter|    rms[Rho]|   rms[RhoU]|   rms[RhoV]|   rms[RhoE]|          CL|          CD|
+-------------------------------------------------------------------------------------------------------+
|          41|           0|   -1.019695|    1.473491|    1.309479|    4.434520|   -0.465408|   -0.397270|
|          42|           0|   -1.016665|    1.500229|    1.352965|    4.437064|   -0.410819|   -0.370624|
|          43|           0|   -1.018400|    1.523839|    1.395223|    4.434372|   -0.336973|   -0.338407|
|          44|           0|   -1.024643|    1.542495|    1.433474|    4.426471|   -0.244834|   -0.301024|
|          45|           0|   -1.035300|    1.556072|    1.465915|    4.413448|   -0.135566|   -0.258929|
|          46|           0|   -1.047142|    1.563419|    1.491366|    4.398306|   -0.010542|   -0.212620|
|          47|           0|   -1.058941|    1.565045|    1.509623|    4.382741|    0.128653|   -0.162647|
|          48|           0|   -1.068139|    1.560270|    1.520891|    4.369758|    0.280252|   -0.109603|
|          49|           0|   -1.071483|    1.549489|    1.525236|    4.363718|    0.442337|   -0.054119|
|          50|           0|   -1.068171|    1.531926|    1.522432|    4.365970|    0.612842|    0.003127|
+-----------------------------------------------------------------------+
|        File Writing Summary       |              Filename             |
+-----------------------------------------------------------------------+
|SU2 restart                        |solution_flow.dat                  |
|Paraview                           |flow.vtu                           |
|Paraview surface                   |surface_flow.vtu                   |
+-----------------------------------------------------------------------+

Writing the forces breakdown file (forces_breakdown.dat).
+-------------------------------------------------------------------------------------------------------+
|  Inner_Iter|   Time_Iter|    rms[Rho]|   rms[RhoU]|   rms[RhoV]|   rms[RhoE]|          CL|          CD|
+-------------------------------------------------------------------------------------------------------+
|          51|           0|   -1.059357|    1.508159|    1.513235|    4.375849|    0.789572|    0.061433|
|          52|           0|   -1.046543|    1.478917|    1.497561|    4.391708|    0.970267|    0.120069|
|          53|           0|   -1.032290|    1.446092|    1.476941|    4.410121|    1.152627|    0.178299|
|          54|           0|   -1.019174|    1.412681|    1.452763|    4.427891|    1.334306|    0.235381|
|          55|           0|   -1.009108|    1.382256|    1.427005|    4.442454|    1.512988|    0.290581|
|          56|           0|   -1.002926|    1.358333|    1.402471|    4.452730|    1.686405|    0.343190|
|          57|           0|   -1.000667|    1.346070|    1.383078|    4.458517|    1.852406|    0.392545|
|          58|           0|   -1.003967|    1.345367|    1.373045|    4.457868|    2.008967|    0.438027|
|          59|           0|   -1.011713|    1.355545|    1.374583|    4.451908|    2.154218|    0.479081|
|          60|           0|   -1.023402|    1.372852|    1.386476|    4.440924|    2.286496|    0.515226|
+-----------------------------------------------------------------------+
|        File Writing Summary       |              Filename             |
+-----------------------------------------------------------------------+
|SU2 restart                        |solution_flow.dat                  |
|Paraview                           |flow.vtu                           |
|Paraview surface                   |surface_flow.vtu                   |
+-----------------------------------------------------------------------+

Writing the forces breakdown file (forces_breakdown.dat).
+-------------------------------------------------------------------------------------------------------+
|  Inner_Iter|   Time_Iter|    rms[Rho]|   rms[RhoU]|   rms[RhoV]|   rms[RhoE]|          CL|          CD|
+-------------------------------------------------------------------------------------------------------+
|          61|           0|   -1.038302|    1.393959|    1.405621|    4.425380|    2.404369|    0.546064|
|          62|           0|   -1.054790|    1.415847|    1.428509|    4.406547|    2.506659|    0.571291|
|          63|           0|   -1.071449|    1.436053|    1.451777|    4.385662|    2.592466|    0.590698|
|          64|           0|   -1.086936|    1.454110|    1.473391|    4.364101|    2.661166|    0.604175|
|          65|           0|   -1.101442|    1.468715|    1.491766|    4.341892|    2.712420|    0.611710|
|          66|           0|   -1.112822|    1.479048|    1.506279|    4.321912|    2.746167|    0.613384|
|          67|           0|   -1.120227|    1.484895|    1.516573|    4.305839|    2.762629|    0.609371|
|          68|           0|   -1.124739|    1.486790|    1.522600|    4.293643|    2.762290|    0.599933|
|          69|           0|   -1.127206|    1.485089|    1.524269|    4.285510|    2.745868|    0.585410|
|          70|           0|   -1.128701|    1.479279|    1.521463|    4.280767|    2.714313|    0.566214|
+-----------------------------------------------------------------------+
|        File Writing Summary       |              Filename             |
+-----------------------------------------------------------------------+
|SU2 restart                        |solution_flow.dat                  |
|Paraview                           |flow.vtu                           |
|Paraview surface                   |surface_flow.vtu                   |
+-----------------------------------------------------------------------+

Writing the forces breakdown file (forces_breakdown.dat).
+-------------------------------------------------------------------------------------------------------+
|  Inner_Iter|   Time_Iter|    rms[Rho]|   rms[RhoU]|   rms[RhoV]|   rms[RhoE]|          CL|          CD|
+-------------------------------------------------------------------------------------------------------+
|          71|           0|   -1.129441|    1.469258|    1.514366|    4.279617|    2.668773|    0.542822|
|          72|           0|   -1.130543|    1.455607|    1.503124|    4.280315|    2.610555|    0.515756|
|          73|           0|   -1.131723|    1.438133|    1.487971|    4.282930|    2.541113|    0.485579|
|          74|           0|   -1.133241|    1.416695|    1.469483|    4.286603|    2.461989|    0.452878|
|          75|           0|   -1.135807|    1.391407|    1.447926|    4.289930|    2.374798|    0.418249|
|          76|           0|   -1.139712|    1.362699|    1.423852|    4.292145|    2.281198|    0.382292|
|          77|           0|   -1.145239|    1.331246|    1.397788|    4.292555|    2.182865|    0.345595|
|          78|           0|   -1.152406|    1.298644|    1.371534|    4.290780|    2.081457|    0.308728|
|          79|           0|   -1.162042|    1.266268|    1.346624|    4.285857|    1.978567|    0.272229|
|          80|           0|   -1.173266|    1.236221|    1.324208|    4.278675|    1.875713|    0.236595|
+-----------------------------------------------------------------------+
|        File Writing Summary       |              Filename             |
+-----------------------------------------------------------------------+
|SU2 restart                        |solution_flow.dat                  |
|Paraview                           |flow.vtu                           |
|Paraview surface                   |surface_flow.vtu                   |
+-----------------------------------------------------------------------+

Writing the forces breakdown file (forces_breakdown.dat).
+-------------------------------------------------------------------------------------------------------+
|  Inner_Iter|   Time_Iter|    rms[Rho]|   rms[RhoU]|   rms[RhoV]|   rms[RhoE]|          CL|          CD|
+-------------------------------------------------------------------------------------------------------+
|          81|           0|   -1.186590|    1.211201|    1.305476|    4.268550|    1.774315|    0.202279|
|          82|           0|   -1.201051|    1.192877|    1.291406|    4.256357|    1.675684|    0.169687|
|          83|           0|   -1.216552|    1.182627|    1.282414|    4.242023|    1.581032|    0.139175|
|          84|           0|   -1.232556|    1.181486|    1.278068|    4.226181|    1.491430|    0.111044|
|          85|           0|   -1.249207|    1.188321|    1.277320|    4.208556|    1.407797|    0.085535|
|          86|           0|   -1.266071|    1.201252|    1.278906|    4.189581|    1.330926|    0.062834|
|          87|           0|   -1.283294|    1.217196|    1.281641|    4.169079|    1.261456|    0.043074|
|          88|           0|   -1.300424|    1.233410|    1.284677|    4.147526|    1.199885|    0.026328|
|          89|           0|   -1.316690|    1.249800|    1.287201|    4.125962|    1.146585|    0.012627|
|          90|           0|   -1.331753|    1.264495|    1.288834|    4.105099|    1.101796|    0.001953|
+-----------------------------------------------------------------------+
|        File Writing Summary       |              Filename             |
+-----------------------------------------------------------------------+
|SU2 restart                        |solution_flow.dat                  |
|Paraview                           |flow.vtu                           |
|Paraview surface                   |surface_flow.vtu                   |
+-----------------------------------------------------------------------+

Writing the forces breakdown file (forces_breakdown.dat).
+-------------------------------------------------------------------------------------------------------+
|  Inner_Iter|   Time_Iter|    rms[Rho]|   rms[RhoU]|   rms[RhoV]|   rms[RhoE]|          CL|          CD|
+-------------------------------------------------------------------------------------------------------+
|          91|           0|   -1.345341|    1.276896|    1.289069|    4.085383|    1.065639|   -0.005750|
|          92|           0|   -1.357151|    1.286496|    1.287807|    4.067344|    1.038134|   -0.010574|
|          93|           0|   -1.367104|    1.293471|    1.284999|    4.051528|    1.019186|   -0.012644|
|          94|           0|   -1.375502|    1.298419|    1.280773|    4.038101|    1.008609|   -0.012111|
|          95|           0|   -1.382903|    1.300616|    1.275252|    4.026604|    1.006129|   -0.009153|
|          96|           0|   -1.390424|    1.300074|    1.268413|    4.015967|    1.011396|   -0.003965|
|          97|           0|   -1.398275|    1.297612|    1.260262|    4.006062|    1.024019|    0.003248|
|          98|           0|   -1.406823|    1.293385|    1.251195|    3.996384|    1.043530|    0.012271|
|          99|           0|   -1.416147|    1.286985|    1.240834|    3.986819|    1.069434|    0.022884|
|         100|           0|   -1.426586|    1.278778|    1.229367|    3.977018|    1.101221|    0.034869|
+-----------------------------------------------------------------------+
|        File Writing Summary       |              Filename             |
+-----------------------------------------------------------------------+
|SU2 restart                        |solution_flow.dat                  |
|Paraview                           |flow.vtu                           |
|Paraview surface                   |surface_flow.vtu                   |
+-----------------------------------------------------------------------+

Writing the forces breakdown file (forces_breakdown.dat).
+-------------------------------------------------------------------------------------------------------+
|  Inner_Iter|   Time_Iter|    rms[Rho]|   rms[RhoU]|   rms[RhoV]|   rms[RhoE]|          CL|          CD|
+-------------------------------------------------------------------------------------------------------+
|         101|           0|   -1.437681|    1.268550|    1.216967|    3.967512|    1.138308|    0.048001|
|         102|           0|   -1.448883|    1.256229|    1.203876|    3.958955|    1.180109|    0.062061|
|         103|           0|   -1.460183|    1.242115|    1.190439|    3.951249|    1.225995|    0.076831|
|         104|           0|   -1.472225|    1.226802|    1.176686|    3.943437|    1.275336|    0.092098|
|         105|           0|   -1.484157|    1.209556|    1.162623|    3.936408|    1.327489|    0.107659|
|         106|           0|   -1.495762|    1.190523|    1.148356|    3.930249|    1.381804|    0.123320|
|         107|           0|   -1.507333|    1.170460|    1.133972|    3.924309|    1.437635|    0.138898|
|         108|           0|   -1.518831|    1.150056|    1.119648|    3.918545|    1.494339|    0.154219|
|         109|           0|   -1.530099|    1.129895|    1.105468|    3.912949|    1.551290|    0.169119|
|         110|           0|   -1.541429|    1.110714|    1.091717|    3.906923|    1.607884|    0.183453|
+-----------------------------------------------------------------------+
|        File Writing Summary       |              Filename             |
+-----------------------------------------------------------------------+
|SU2 restart                        |solution_flow.dat                  |
|Paraview                           |flow.vtu                           |
|Paraview surface                   |surface_flow.vtu                   |
+-----------------------------------------------------------------------+

Writing the forces breakdown file (forces_breakdown.dat).
+-------------------------------------------------------------------------------------------------------+
|  Inner_Iter|   Time_Iter|    rms[Rho]|   rms[RhoU]|   rms[RhoV]|   rms[RhoE]|          CL|          CD|
+-------------------------------------------------------------------------------------------------------+
|         111|           0|   -1.552474|    1.093221|    1.078671|    3.900539|    1.663533|    0.197084|
|         112|           0|   -1.563614|    1.077978|    1.066880|    3.893307|    1.717681|    0.209892|
|         113|           0|   -1.574349|    1.065705|    1.056801|    3.885640|    1.769794|    0.221767|
|         114|           0|   -1.584032|    1.056937|    1.048669|    3.878070|    1.819374|    0.232617|
|         115|           0|   -1.592929|    1.052106|    1.042750|    3.870200|    1.865958|    0.242361|
|         116|           0|   -1.600958|    1.051234|    1.039079|    3.862079|    1.909138|    0.250939|
|         117|           0|   -1.608072|    1.053855|    1.037735|    3.853719|    1.948545|    0.258302|
|         118|           0|   -1.614489|    1.059095|    1.038310|    3.844924|    1.983868|    0.264420|
|         119|           0|   -1.620150|    1.067116|    1.040620|    3.835869|    2.014829|    0.269267|
|         120|           0|   -1.625557|    1.076802|    1.044162|    3.826240|    2.041207|    0.272837|
+-----------------------------------------------------------------------+
|        File Writing Summary       |              Filename             |
+-----------------------------------------------------------------------+
|SU2 restart                        |solution_flow.dat                  |
|Paraview                           |flow.vtu                           |
|Paraview surface                   |surface_flow.vtu                   |
+-----------------------------------------------------------------------+

Writing the forces breakdown file (forces_breakdown.dat).
+-------------------------------------------------------------------------------------------------------+
|  Inner_Iter|   Time_Iter|    rms[Rho]|   rms[RhoU]|   rms[RhoV]|   rms[RhoE]|          CL|          CD|
+-------------------------------------------------------------------------------------------------------+
|         121|           0|   -1.630453|    1.087179|    1.048540|    3.816375|    2.062840|    0.275137|
|         122|           0|   -1.635631|    1.097278|    1.053251|    3.805636|    2.079610|    0.276184|
|         123|           0|   -1.641001|    1.106592|    1.057841|    3.794300|    2.091451|    0.276006|
|         124|           0|   -1.646469|    1.115112|    1.061911|    3.782843|    2.098352|    0.274643|
|         125|           0|   -1.652310|    1.122405|    1.065026|    3.771262|    2.100363|    0.272147|
|         126|           0|   -1.657921|    1.127009|    1.066803|    3.760016|    2.097589|    0.268583|
|         127|           0|   -1.662912|    1.129457|    1.066994|    3.750141|    2.090221|    0.264033|
|         128|           0|   -1.667391|    1.129463|    1.065121|    3.741618|    2.078472|    0.258581|
|         129|           0|   -1.670843|    1.127157|    1.060901|    3.735561|    2.062600|    0.252322|
|         130|           0|   -1.673297|    1.122407|    1.054028|    3.732185|    2.042919|    0.245356|
+-----------------------------------------------------------------------+
|        File Writing Summary       |              Filename             |
+-----------------------------------------------------------------------+
|SU2 restart                        |solution_flow.dat                  |
|Paraview                           |flow.vtu                           |
|Paraview surface                   |surface_flow.vtu                   |
+-----------------------------------------------------------------------+

Writing the forces breakdown file (forces_breakdown.dat).
+-------------------------------------------------------------------------------------------------------+
|  Inner_Iter|   Time_Iter|    rms[Rho]|   rms[RhoU]|   rms[RhoV]|   rms[RhoE]|          CL|          CD|
+-------------------------------------------------------------------------------------------------------+
|         131|           0|   -1.674498|    1.115009|    1.044366|    3.731784|    2.019781|    0.237792|
|         132|           0|   -1.674599|    1.105092|    1.031865|    3.734148|    1.993566|    0.229741|
|         133|           0|   -1.673741|    1.092805|    1.016267|    3.738954|    1.964684|    0.221319|
|         134|           0|   -1.672416|    1.078385|    0.997398|    3.745372|    1.933564|    0.212639|
|         135|           0|   -1.670742|    1.062084|    0.975447|    3.752900|    1.900654|    0.203819|
|         136|           0|   -1.668790|    1.044650|    0.950385|    3.761268|    1.866411|    0.194973|
|         137|           0|   -1.667742|    1.024649|    0.921870|    3.768481|    1.831299|    0.186212|
|         138|           0|   -1.667149|    1.003430|    0.890541|    3.775217|    1.795788|    0.177641|
|         139|           0|   -1.666850|    0.982074|    0.857022|    3.781468|    1.760341|    0.169364|
|         140|           0|   -1.667566|    0.961544|    0.822400|    3.786281|    1.725404|    0.161476|
+-----------------------------------------------------------------------+
|        File Writing Summary       |              Filename             |
+-----------------------------------------------------------------------+
|SU2 restart                        |solution_flow.dat                  |
|Paraview                           |flow.vtu                           |
|Paraview surface                   |surface_flow.vtu                   |
+-----------------------------------------------------------------------+

Writing the forces breakdown file (forces_breakdown.dat).
+-------------------------------------------------------------------------------------------------------+
|  Inner_Iter|   Time_Iter|    rms[Rho]|   rms[RhoU]|   rms[RhoV]|   rms[RhoE]|          CL|          CD|
+-------------------------------------------------------------------------------------------------------+
|         141|           0|   -1.669827|    0.942760|    0.788320|    3.788697|    1.691401|    0.154060|
|         142|           0|   -1.673383|    0.927214|    0.757211|    3.789047|    1.658730|    0.147191|
|         143|           0|   -1.677892|    0.916096|    0.731979|    3.787623|    1.627781|    0.140939|
|         144|           0|   -1.684190|    0.909994|    0.715652|    3.783536|    1.598902|    0.135360|
|         145|           0|   -1.691254|    0.908660|    0.710188|    3.777779|    1.572411|    0.130500|
|         146|           0|   -1.699246|    0.911822|    0.715417|    3.769922|    1.548595|    0.126398|
|         147|           0|   -1.708079|    0.918352|    0.729392|    3.760052|    1.527706|    0.123077|
|         148|           0|   -1.717274|    0.927642|    0.749216|    3.748620|    1.509944|    0.120550|
|         149|           0|   -1.726605|    0.938288|    0.771837|    3.735699|    1.495448|    0.118811|
|         150|           0|   -1.735750|    0.949237|    0.795092|    3.721479|    1.484306|    0.117844|
+-----------------------------------------------------------------------+
|        File Writing Summary       |              Filename             |
+-----------------------------------------------------------------------+
|SU2 restart                        |solution_flow.dat                  |
|Paraview                           |flow.vtu                           |
|Paraview surface                   |surface_flow.vtu                   |
+-----------------------------------------------------------------------+

Writing the forces breakdown file (forces_breakdown.dat).
+-------------------------------------------------------------------------------------------------------+
|  Inner_Iter|   Time_Iter|    rms[Rho]|   rms[RhoU]|   rms[RhoV]|   rms[RhoE]|          CL|          CD|
+-------------------------------------------------------------------------------------------------------+
|         151|           0|   -1.744033|    0.960065|    0.817412|    3.706734|    1.476577|    0.117626|
|         152|           0|   -1.751234|    0.969823|    0.837706|    3.691785|    1.472271|    0.118125|
|         153|           0|   -1.756463|    0.978230|    0.855353|    3.677929|    1.471343|    0.119296|
|         154|           0|   -1.759749|    0.985015|    0.869984|    3.665729|    1.473735|    0.121093|
|         155|           0|   -1.761142|    0.989614|    0.881448|    3.655690|    1.479341|    0.123459|
|         156|           0|   -1.760861|    0.992154|    0.889716|    3.648290|    1.488016|    0.126337|
|         157|           0|   -1.759249|    0.992607|    0.894761|    3.643724|    1.499575|    0.129658|
|         158|           0|   -1.756779|    0.990672|    0.896724|    3.641772|    1.513815|    0.133357|
|         159|           0|   -1.754480|    0.986129|    0.895711|    3.641366|    1.530497|    0.137362|
|         160|           0|   -1.751965|    0.979321|    0.891760|    3.643185|    1.549365|    0.141603|
+-----------------------------------------------------------------------+
|        File Writing Summary       |              Filename             |
+-----------------------------------------------------------------------+
|SU2 restart                        |solution_flow.dat                  |
|Paraview                           |flow.vtu                           |
|Paraview surface                   |surface_flow.vtu                   |
+-----------------------------------------------------------------------+

Writing the forces breakdown file (forces_breakdown.dat).
+-------------------------------------------------------------------------------------------------------+
|  Inner_Iter|   Time_Iter|    rms[Rho]|   rms[RhoU]|   rms[RhoV]|   rms[RhoE]|          CL|          CD|
+-------------------------------------------------------------------------------------------------------+
|         161|           0|   -1.749729|    0.970267|    0.884799|    3.646439|    1.570141|    0.146008|
|         162|           0|   -1.748274|    0.959171|    0.874797|    3.650264|    1.592537|    0.150508|
|         163|           0|   -1.747572|    0.945987|    0.862023|    3.654515|    1.616246|    0.155033|
|         164|           0|   -1.747665|    0.930397|    0.846891|    3.658901|    1.640957|    0.159514|
|         165|           0|   -1.749086|    0.912733|    0.829203|    3.662582|    1.666358|    0.163890|
|         166|           0|   -1.751905|    0.893061|    0.809069|    3.665249|    1.692126|    0.168103|
|         167|           0|   -1.755963|    0.871827|    0.786604|    3.666863|    1.717944|    0.172097|
|         168|           0|   -1.761128|    0.849394|    0.762089|    3.667480|    1.743503|    0.175821|
|         169|           0|   -1.767264|    0.826448|    0.736167|    3.667139|    1.768501|    0.179230|
|         170|           0|   -1.774148|    0.803545|    0.709642|    3.665879|    1.792656|    0.182284|
+-----------------------------------------------------------------------+
|        File Writing Summary       |              Filename             |
+-----------------------------------------------------------------------+
|SU2 restart                        |solution_flow.dat                  |
|Paraview                           |flow.vtu                           |
|Paraview surface                   |surface_flow.vtu                   |
+-----------------------------------------------------------------------+

Writing the forces breakdown file (forces_breakdown.dat).
+-------------------------------------------------------------------------------------------------------+
|  Inner_Iter|   Time_Iter|    rms[Rho]|   rms[RhoU]|   rms[RhoV]|   rms[RhoE]|          CL|          CD|
+-------------------------------------------------------------------------------------------------------+
|         171|           0|   -1.781652|    0.781403|    0.683526|    3.663667|    1.815703|    0.184954|
|         172|           0|   -1.789573|    0.761207|    0.659073|    3.660584|    1.837401|    0.187214|
|         173|           0|   -1.797595|    0.744458|    0.637727|    3.656780|    1.857522|    0.189046|
|         174|           0|   -1.805766|    0.732238|    0.621149|    3.652005|    1.875858|    0.190435|
|         175|           0|   -1.814160|    0.725411|    0.610721|    3.646023|    1.892226|    0.191373|
|         176|           0|   -1.822700|    0.724070|    0.607116|    3.638730|    1.906464|    0.191858|
|         177|           0|   -1.831128|    0.727818|    0.610298|    3.630327|    1.918431|    0.191889|
|         178|           0|   -1.839032|    0.735940|    0.619252|    3.621216|    1.928040|    0.191479|
|         179|           0|   -1.846357|    0.747182|    0.632411|    3.611394|    1.935227|    0.190643|
|         180|           0|   -1.852937|    0.760476|    0.648213|    3.601104|    1.939968|    0.189404|
+-----------------------------------------------------------------------+
|        File Writing Summary       |              Filename             |
+-----------------------------------------------------------------------+
|SU2 restart                        |solution_flow.dat                  |
|Paraview                           |flow.vtu                           |
|Paraview surface                   |surface_flow.vtu                   |
+-----------------------------------------------------------------------+

Writing the forces breakdown file (forces_breakdown.dat).
+-------------------------------------------------------------------------------------------------------+
|  Inner_Iter|   Time_Iter|    rms[Rho]|   rms[RhoU]|   rms[RhoV]|   rms[RhoE]|          CL|          CD|
+-------------------------------------------------------------------------------------------------------+
|         181|           0|   -1.858906|    0.774303|    0.665090|    3.590279|    1.942257|    0.187789|
|         182|           0|   -1.864331|    0.787870|    0.681836|    3.579018|    1.942135|    0.185831|
|         183|           0|   -1.869274|    0.800388|    0.697665|    3.567391|    1.939663|    0.183565|
|         184|           0|   -1.874290|    0.811247|    0.711970|    3.555009|    1.934931|    0.181031|
|         185|           0|   -1.878839|    0.820550|    0.724088|    3.542898|    1.928049|    0.178268|
|         186|           0|   -1.882545|    0.827561|    0.733808|    3.531751|    1.919166|    0.175322|
|         187|           0|   -1.885366|    0.832276|    0.740897|    3.522176|    1.908448|    0.172239|
|         188|           0|   -1.887468|    0.834549|    0.745339|    3.514379|    1.896073|    0.169065|
|         189|           0|   -1.889163|    0.834161|    0.746902|    3.508368|    1.882234|    0.165845|
|         190|           0|   -1.890254|    0.831062|    0.745648|    3.504563|    1.867151|    0.162625|
+-----------------------------------------------------------------------+
|        File Writing Summary       |              Filename             |
+-----------------------------------------------------------------------+
|SU2 restart                        |solution_flow.dat                  |
|Paraview                           |flow.vtu                           |
|Paraview surface                   |surface_flow.vtu                   |
+-----------------------------------------------------------------------+

Writing the forces breakdown file (forces_breakdown.dat).
+-------------------------------------------------------------------------------------------------------+
|  Inner_Iter|   Time_Iter|    rms[Rho]|   rms[RhoU]|   rms[RhoV]|   rms[RhoE]|          CL|          CD|
+-------------------------------------------------------------------------------------------------------+
|         191|           0|   -1.891027|    0.825063|    0.741471|    3.502738|    1.851043|    0.159451|
|         192|           0|   -1.891762|    0.816331|    0.734418|    3.502569|    1.834139|    0.156367|
|         193|           0|   -1.892870|    0.804958|    0.724202|    3.503514|    1.816676|    0.153414|
|         194|           0|   -1.894251|    0.790753|    0.711001|    3.505474|    1.798888|    0.150631|
|         195|           0|   -1.896001|    0.773668|    0.694825|    3.508110|    1.781002|    0.148052|
|         196|           0|   -1.898506|    0.753784|    0.675785|    3.510751|    1.763246|    0.145708|
|         197|           0|   -1.901362|    0.731165|    0.653936|    3.513713|    1.745837|    0.143624|
|         198|           0|   -1.904795|    0.706163|    0.629460|    3.516442|    1.728976|    0.141822|
|         199|           0|   -1.908904|    0.679053|    0.602816|    3.518631|    1.712850|    0.140315|
|         200|           0|   -1.913740|    0.650315|    0.574587|    3.519947|    1.697639|    0.139116|
+-----------------------------------------------------------------------+
|        File Writing Summary       |              Filename             |
+-----------------------------------------------------------------------+
|SU2 restart                        |solution_flow.dat                  |
|Paraview                           |flow.vtu                           |
|Paraview surface                   |surface_flow.vtu                   |
+-----------------------------------------------------------------------+

Writing the forces breakdown file (forces_breakdown.dat).
+-------------------------------------------------------------------------------------------------------+
|  Inner_Iter|   Time_Iter|    rms[Rho]|   rms[RhoU]|   rms[RhoV]|   rms[RhoE]|          CL|          CD|
+-------------------------------------------------------------------------------------------------------+
|         201|           0|   -1.919401|    0.620631|    0.545771|    3.520081|    1.683502|    0.138233|
|         202|           0|   -1.925680|    0.591002|    0.517833|    3.519127|    1.670592|    0.137670|
|         203|           0|   -1.932501|    0.563228|    0.492403|    3.517038|    1.659044|    0.137430|
|         204|           0|   -1.940164|    0.539343|    0.471510|    3.513341|    1.648979|    0.137508|
|         205|           0|   -1.948453|    0.521319|    0.457133|    3.508176|    1.640491|    0.137897|
|         206|           0|   -1.957197|    0.510621|    0.450749|    3.501604|    1.633666|    0.138587|
|         207|           0|   -1.966038|    0.507668|    0.452652|    3.493893|    1.628556|    0.139563|
|         208|           0|   -1.974724|    0.512185|    0.461660|    3.485166|    1.625197|    0.140807|
|         209|           0|   -1.983482|    0.522649|    0.475997|    3.475061|    1.623604|    0.142300|
|         210|           0|   -1.991977|    0.537292|    0.493639|    3.463920|    1.623774|    0.144015|
+-----------------------------------------------------------------------+
|        File Writing Summary       |              Filename             |
+-----------------------------------------------------------------------+
|SU2 restart                        |solution_flow.dat                  |
|Paraview                           |flow.vtu                           |
|Paraview surface                   |surface_flow.vtu                   |
+-----------------------------------------------------------------------+

Writing the forces breakdown file (forces_breakdown.dat).
+-------------------------------------------------------------------------------------------------------+
|  Inner_Iter|   Time_Iter|    rms[Rho]|   rms[RhoU]|   rms[RhoV]|   rms[RhoE]|          CL|          CD|
+-------------------------------------------------------------------------------------------------------+
|         211|           0|   -2.000203|    0.553941|    0.512591|    3.451807|    1.625684|    0.145928|
|         212|           0|   -2.008080|    0.570316|    0.531253|    3.438793|    1.629292|    0.148009|
|         213|           0|   -2.014772|    0.586224|    0.548645|    3.425975|    1.634537|    0.150230|
|         214|           0|   -2.020073|    0.600872|    0.564130|    3.413827|    1.641338|    0.152558|
|         215|           0|   -2.024040|    0.613653|    0.577276|    3.402708|    1.649598|    0.154960|
|         216|           0|   -2.026855|    0.624286|    0.587791|    3.392805|    1.659207|    0.157404|
|         217|           0|   -2.028742|    0.632423|    0.595556|    3.384271|    1.670037|    0.159857|
|         218|           0|   -2.029974|    0.638174|    0.600548|    3.377259|    1.681949|    0.162287|
|         219|           0|   -2.030673|    0.641438|    0.602713|    3.371955|    1.694794|    0.164660|
|         220|           0|   -2.031131|    0.641991|    0.602190|    3.368280|    1.708409|    0.166947|
+-----------------------------------------------------------------------+
|        File Writing Summary       |              Filename             |
+-----------------------------------------------------------------------+
|SU2 restart                        |solution_flow.dat                  |
|Paraview                           |flow.vtu                           |
|Paraview surface                   |surface_flow.vtu                   |
+-----------------------------------------------------------------------+

Writing the forces breakdown file (forces_breakdown.dat).
+-------------------------------------------------------------------------------------------------------+
|  Inner_Iter|   Time_Iter|    rms[Rho]|   rms[RhoU]|   rms[RhoV]|   rms[RhoE]|          CL|          CD|
+-------------------------------------------------------------------------------------------------------+
|         221|           0|   -2.031618|    0.639909|    0.598918|    3.366008|    1.722635|    0.169118|
|         222|           0|   -2.032303|    0.635116|    0.592900|    3.364955|    1.737295|    0.171144|
|         223|           0|   -2.033026|    0.627468|    0.584031|    3.365326|    1.752217|    0.173000|
|         224|           0|   -2.033922|    0.617048|    0.572283|    3.366927|    1.767224|    0.174663|
|         225|           0|   -2.035434|    0.604138|    0.557838|    3.368976|    1.782143|    0.176111|
|         226|           0|   -2.037742|    0.588918|    0.540802|    3.371027|    1.796800|    0.177327|
|         227|           0|   -2.040950|    0.571543|    0.521262|    3.372771|    1.811029|    0.178296|
|         228|           0|   -2.045155|    0.552185|    0.499464|    3.373872|    1.824674|    0.179007|
|         229|           0|   -2.050388|    0.531243|    0.475665|    3.374141|    1.837583|    0.179452|
|         230|           0|   -2.056592|    0.509331|    0.450279|    3.373491|    1.849617|    0.179627|
+-----------------------------------------------------------------------+
|        File Writing Summary       |              Filename             |
+-----------------------------------------------------------------------+
|SU2 restart                        |solution_flow.dat                  |
|Paraview                           |flow.vtu                           |
|Paraview surface                   |surface_flow.vtu                   |
+-----------------------------------------------------------------------+

Writing the forces breakdown file (forces_breakdown.dat).
+-------------------------------------------------------------------------------------------------------+
|  Inner_Iter|   Time_Iter|    rms[Rho]|   rms[RhoU]|   rms[RhoV]|   rms[RhoE]|          CL|          CD|
+-------------------------------------------------------------------------------------------------------+
|         231|           0|   -2.063765|    0.487288|    0.423988|    3.371745|    1.860647|    0.179531|
|         232|           0|   -2.071911|    0.466110|    0.397725|    3.368768|    1.870559|    0.179165|
|         233|           0|   -2.080806|    0.446685|    0.372805|    3.364667|    1.879254|    0.178534|
|         234|           0|   -2.090518|    0.430210|    0.350764|    3.359178|    1.886645|    0.177648|
|         235|           0|   -2.100907|    0.417794|    0.333134|    3.352365|    1.892668|    0.176517|
|         236|           0|   -2.111635|    0.410373|    0.321113|    3.344448|    1.897275|    0.175158|
|         237|           0|   -2.122531|    0.408190|    0.315453|    3.335455|    1.900440|    0.173588|
|         238|           0|   -2.133160|    0.411153|    0.316187|    3.325661|    1.902151|    0.171828|
|         239|           0|   -2.143485|    0.418564|    0.322600|    3.315049|    1.902421|    0.169902|
|         240|           0|   -2.153552|    0.429350|    0.333387|    3.303514|    1.901271|    0.167834|
+-----------------------------------------------------------------------+
|        File Writing Summary       |              Filename             |
+-----------------------------------------------------------------------+
|SU2 restart                        |solution_flow.dat                  |
|Paraview                           |flow.vtu                           |
|Paraview surface                   |surface_flow.vtu                   |
+-----------------------------------------------------------------------+

Writing the forces breakdown file (forces_breakdown.dat).
+-------------------------------------------------------------------------------------------------------+
|  Inner_Iter|   Time_Iter|    rms[Rho]|   rms[RhoU]|   rms[RhoV]|   rms[RhoE]|          CL|          CD|
+-------------------------------------------------------------------------------------------------------+
|         241|           0|   -2.163217|    0.442149|    0.346939|    3.291103|    1.898748|    0.165651|
|         242|           0|   -2.172203|    0.455702|    0.361822|    3.278173|    1.894908|    0.163379|
|         243|           0|   -2.180383|    0.468935|    0.376902|    3.264882|    1.889826|    0.161047|
|         244|           0|   -2.187947|    0.480973|    0.391312|    3.251116|    1.883589|    0.158683|
|         245|           0|   -2.193990|    0.491887|    0.404299|    3.238150|    1.876296|    0.156317|
|         246|           0|   -2.198752|    0.501205|    0.415450|    3.226086|    1.868058|    0.153975|
|         247|           0|   -2.202312|    0.508521|    0.424422|    3.215225|    1.858997|    0.151688|
|         248|           0|   -2.204877|    0.513610|    0.431090|    3.205759|    1.849240|    0.149481|
|         249|           0|   -2.206627|    0.516260|    0.435250|    3.197908|    1.838925|    0.147381|
|         250|           0|   -2.207765|    0.516697|    0.436754|    3.191822|    1.828189|    0.145411|
+-----------------------------------------------------------------------+
|        File Writing Summary       |              Filename             |
+-----------------------------------------------------------------------+
|SU2 restart                        |solution_flow.dat                  |
|Paraview                           |flow.vtu                           |
|Paraview surface                   |surface_flow.vtu                   |
+-----------------------------------------------------------------------+

Writing the forces breakdown file (forces_breakdown.dat).
+-------------------------------------------------------------------------------------------------------+
|  Inner_Iter|   Time_Iter|    rms[Rho]|   rms[RhoU]|   rms[RhoV]|   rms[RhoE]|          CL|          CD|
+-------------------------------------------------------------------------------------------------------+
|         251|           0|   -2.208537|    0.514808|    0.435613|    3.187488|    1.817177|    0.143595|
|         252|           0|   -2.209385|    0.510365|    0.431819|    3.184551|    1.806029|    0.141951|
|         253|           0|   -2.210792|    0.503492|    0.425388|    3.182543|    1.794889|    0.140501|
|         254|           0|   -2.211949|    0.494143|    0.416338|    3.182254|    1.783892|    0.139256|
|         255|           0|   -2.213335|    0.482285|    0.404632|    3.182992|    1.773176|    0.138232|
|         256|           0|   -2.215261|    0.468022|    0.390311|    3.184268|    1.762867|    0.137437|
|         257|           0|   -2.217671|    0.451323|    0.373399|    3.185996|    1.753093|    0.136881|
|         258|           0|   -2.220681|    0.432299|    0.354061|    3.187836|    1.743962|    0.136565|
|         259|           0|   -2.224438|    0.411192|    0.332366|    3.189409|    1.735586|    0.136494|
|         260|           0|   -2.229028|    0.388137|    0.308506|    3.190427|    1.728052|    0.136665|
+-----------------------------------------------------------------------+
|        File Writing Summary       |              Filename             |
+-----------------------------------------------------------------------+
|SU2 restart                        |solution_flow.dat                  |
|Paraview                           |flow.vtu                           |
|Paraview surface                   |surface_flow.vtu                   |
+-----------------------------------------------------------------------+

Writing the forces breakdown file (forces_breakdown.dat).
+-------------------------------------------------------------------------------------------------------+
|  Inner_Iter|   Time_Iter|    rms[Rho]|   rms[RhoU]|   rms[RhoV]|   rms[RhoE]|          CL|          CD|
+-------------------------------------------------------------------------------------------------------+
|         261|           0|   -2.234460|    0.363506|    0.282920|    3.190705|    1.721447|    0.137075|
|         262|           0|   -2.240824|    0.337849|    0.256178|    3.189987|    1.715837|    0.137717|
|         263|           0|   -2.248024|    0.311813|    0.229071|    3.188247|    1.711282|    0.138583|
|         264|           0|   -2.256042|    0.286326|    0.202781|    3.185331|    1.707823|    0.139658|
|         265|           0|   -2.264715|    0.262528|    0.178759|    3.181300|    1.705493|    0.140932|
|         266|           0|   -2.274047|    0.241707|    0.158653|    3.175977|    1.704305|    0.142385|
|         267|           0|   -2.284216|    0.224608|    0.143898|    3.169060|    1.704263|    0.144003|
|         268|           0|   -2.294639|    0.212351|    0.135575|    3.160995|    1.705354|    0.145763|
|         269|           0|   -2.304824|    0.205731|    0.134038|    3.152150|    1.707557|    0.147646|
|         270|           0|   -2.314525|    0.204683|    0.138638|    3.142670|    1.710833|    0.149629|
+-----------------------------------------------------------------------+
|        File Writing Summary       |              Filename             |
+-----------------------------------------------------------------------+
|SU2 restart                        |solution_flow.dat                  |
|Paraview                           |flow.vtu                           |
|Paraview surface                   |surface_flow.vtu                   |
+-----------------------------------------------------------------------+

Writing the forces breakdown file (forces_breakdown.dat).
+-------------------------------------------------------------------------------------------------------+
|  Inner_Iter|   Time_Iter|    rms[Rho]|   rms[RhoU]|   rms[RhoV]|   rms[RhoE]|          CL|          CD|
+-------------------------------------------------------------------------------------------------------+
|         271|           0|   -2.323824|    0.208457|    0.148100|    3.132385|    1.715139|    0.151689|
|         272|           0|   -2.332394|    0.216072|    0.160952|    3.121655|    1.720412|    0.153802|
|         273|           0|   -2.339958|    0.226219|    0.175681|    3.110765|    1.726588|    0.155944|
|         274|           0|   -2.346399|    0.237789|    0.191031|    3.099937|    1.733585|    0.158092|
|         275|           0|   -2.351503|    0.249818|    0.205965|    3.089649|    1.741320|    0.160221|
|         276|           0|   -2.355367|    0.261382|    0.219785|    3.080010|    1.749694|    0.162308|
|         277|           0|   -2.358173|    0.271732|    0.231936|    3.071137|    1.758610|    0.164330|
|         278|           0|   -2.360239|    0.280688|    0.242063|    3.063060|    1.767960|    0.166263|
|         279|           0|   -2.361695|    0.287704|    0.250038|    3.055890|    1.777635|    0.168088|
|         280|           0|   -2.362622|    0.292725|    0.255666|    3.049889|    1.787525|    0.169784|
+-----------------------------------------------------------------------+
|        File Writing Summary       |              Filename             |
+-----------------------------------------------------------------------+
|SU2 restart                        |solution_flow.dat                  |
|Paraview                           |flow.vtu                           |
|Paraview surface                   |surface_flow.vtu                   |
+-----------------------------------------------------------------------+

Writing the forces breakdown file (forces_breakdown.dat).
+-------------------------------------------------------------------------------------------------------+
|  Inner_Iter|   Time_Iter|    rms[Rho]|   rms[RhoU]|   rms[RhoV]|   rms[RhoE]|          CL|          CD|
+-------------------------------------------------------------------------------------------------------+
|         281|           0|   -2.363173|    0.295678|    0.258935|    3.045161|    1.797516|    0.171334|
|         282|           0|   -2.363571|    0.296424|    0.259851|    3.041638|    1.807495|    0.172719|
|         283|           0|   -2.364026|    0.294943|    0.258374|    3.039162|    1.817356|    0.173927|
|         284|           0|   -2.364674|    0.291230|    0.254566|    3.037629|    1.826988|    0.174945|
|         285|           0|   -2.365831|    0.285285|    0.248464|    3.036638|    1.836292|    0.175763|
|         286|           0|   -2.367619|    0.277221|    0.240149|    3.036016|    1.845167|    0.176373|
|         287|           0|   -2.370200|    0.267139|    0.229659|    3.035490|    1.853527|    0.176771|
|         288|           0|   -2.373714|    0.255118|    0.217131|    3.034823|    1.861286|    0.176953|
|         289|           0|   -2.378166|    0.241346|    0.202728|    3.033880|    1.868372|    0.176920|
|         290|           0|   -2.383545|    0.226170|    0.186706|    3.032532|    1.874713|    0.176671|
+-----------------------------------------------------------------------+
|        File Writing Summary       |              Filename             |
+-----------------------------------------------------------------------+
|SU2 restart                        |solution_flow.dat                  |
|Paraview                           |flow.vtu                           |
|Paraview surface                   |surface_flow.vtu                   |
+-----------------------------------------------------------------------+

Writing the forces breakdown file (forces_breakdown.dat).
+-------------------------------------------------------------------------------------------------------+
|  Inner_Iter|   Time_Iter|    rms[Rho]|   rms[RhoU]|   rms[RhoV]|   rms[RhoE]|          CL|          CD|
+-------------------------------------------------------------------------------------------------------+
|         291|           0|   -2.389819|    0.209980|    0.169391|    3.030670|    1.880254|    0.176214|
|         292|           0|   -2.397046|    0.193165|    0.151109|    3.028094|    1.884948|    0.175553|
|         293|           0|   -2.405168|    0.176250|    0.132353|    3.024741|    1.888761|    0.174698|
|         294|           0|   -2.414117|    0.159843|    0.113834|    3.020547|    1.891667|    0.173661|
|         295|           0|   -2.423925|    0.144705|    0.096233|    3.015345|    1.893656|    0.172456|
|         296|           0|   -2.434474|    0.131490|    0.080376|    3.009112|    1.894724|    0.171095|
|         297|           0|   -2.445593|    0.120802|    0.067040|    3.001875|    1.894885|    0.169600|
|         298|           0|   -2.457007|    0.113044|    0.056808|    2.993775|    1.894153|    0.167984|
|         299|           0|   -2.468848|    0.108367|    0.050171|    2.984501|    1.892562|    0.166269|
|         300|           0|   -2.480477|    0.106993|    0.047198|    2.974577|    1.890145|    0.164473|
+-----------------------------------------------------------------------+
|        File Writing Summary       |              Filename             |
+-----------------------------------------------------------------------+
|SU2 restart                        |solution_flow.dat                  |
|Paraview                           |flow.vtu                           |
|Paraview surface                   |surface_flow.vtu                   |
+-----------------------------------------------------------------------+

Writing the forces breakdown file (forces_breakdown.dat).
+-------------------------------------------------------------------------------------------------------+
|  Inner_Iter|   Time_Iter|    rms[Rho]|   rms[RhoU]|   rms[RhoV]|   rms[RhoE]|          CL|          CD|
+-------------------------------------------------------------------------------------------------------+
|         301|           0|   -2.491818|    0.108667|    0.047645|    2.964008|    1.886957|    0.162620|
|         302|           0|   -2.502890|    0.112951|    0.051041|    2.952673|    1.883047|    0.160728|
|         303|           0|   -2.513374|    0.119179|    0.056692|    2.940824|    1.878487|    0.158823|
|         304|           0|   -2.523072|    0.126713|    0.063881|    2.928652|    1.873343|    0.156922|
|         305|           0|   -2.531834|    0.134899|    0.071862|    2.916371|    1.867696|    0.155051|
|         306|           0|   -2.539483|    0.143204|    0.079958|    2.904236|    1.861621|    0.153227|
|         307|           0|   -2.546045|    0.151071|    0.087630|    2.892382|    1.855210|    0.151472|
|         308|           0|   -2.551660|    0.158059|    0.094474|    2.880871|    1.848547|    0.149806|
|         309|           0|   -2.556301|    0.163844|    0.100129|    2.870024|    1.841722|    0.148246|
|         310|           0|   -2.560004|    0.168161|    0.104348|    2.860154|    1.834822|    0.146808|
+-----------------------------------------------------------------------+
|        File Writing Summary       |              Filename             |
+-----------------------------------------------------------------------+
|SU2 restart                        |solution_flow.dat                  |
|Paraview                           |flow.vtu                           |
|Paraview surface                   |surface_flow.vtu                   |
+-----------------------------------------------------------------------+

Writing the forces breakdown file (forces_breakdown.dat).
+-------------------------------------------------------------------------------------------------------+
|  Inner_Iter|   Time_Iter|    rms[Rho]|   rms[RhoU]|   rms[RhoV]|   rms[RhoE]|          CL|          CD|
+-------------------------------------------------------------------------------------------------------+
|         311|           0|   -2.562952|    0.170861|    0.106933|    2.851359|    1.827937|    0.145508|
|         312|           0|   -2.565352|    0.171841|    0.107651|    2.843708|    1.821150|    0.144358|
|         313|           0|   -2.567348|    0.170994|    0.106409|    2.837281|    1.814548|    0.143370|
|         314|           0|   -2.569157|    0.168208|    0.103143|    2.832035|    1.808208|    0.142553|
|         315|           0|   -2.571000|    0.163483|    0.097817|    2.827893|    1.802206|    0.141915|
|         316|           0|   -2.573100|    0.156744|    0.090445|    2.824643|    1.796610|    0.141459|
|         317|           0|   -2.575542|    0.147975|    0.081023|    2.822223|    1.791486|    0.141191|
|         318|           0|   -2.578452|    0.137194|    0.069579|    2.820447|    1.786886|    0.141109|
|         319|           0|   -2.581940|    0.124432|    0.056153|    2.819091|    1.782861|    0.141213|
|         320|           0|   -2.586043|    0.109768|    0.040886|    2.817993|    1.779452|    0.141499|
+-----------------------------------------------------------------------+
|        File Writing Summary       |              Filename             |
+-----------------------------------------------------------------------+
|SU2 restart                        |solution_flow.dat                  |
|Paraview                           |flow.vtu                           |
|Paraview surface                   |surface_flow.vtu                   |
+-----------------------------------------------------------------------+

Writing the forces breakdown file (forces_breakdown.dat).
+-------------------------------------------------------------------------------------------------------+
|  Inner_Iter|   Time_Iter|    rms[Rho]|   rms[RhoU]|   rms[RhoV]|   rms[RhoE]|          CL|          CD|
+-------------------------------------------------------------------------------------------------------+
|         321|           0|   -2.590827|    0.093314|    0.023835|    2.816931|    1.776691|    0.141962|
|         322|           0|   -2.596269|    0.075185|    0.005188|    2.815780|    1.774602|    0.142594|
|         323|           0|   -2.602429|    0.055514|   -0.014734|    2.814319|    1.773204|    0.143387|
|         324|           0|   -2.609311|    0.034687|   -0.035522|    2.812370|    1.772502|    0.144328|
|         325|           0|   -2.616900|    0.013049|   -0.056700|    2.809804|    1.772498|    0.145408|
|         326|           0|   -2.625215|   -0.008958|   -0.077569|    2.806447|    1.773183|    0.146610|
|         327|           0|   -2.634171|   -0.030878|   -0.097456|    2.802232|    1.774541|    0.147923|
|         328|           0|   -2.643649|   -0.052078|   -0.115495|    2.797152|    1.776550|    0.149327|
|         329|           0|   -2.653418|   -0.071935|   -0.130876|    2.791294|    1.779179|    0.150809|
|         330|           0|   -2.663397|   -0.089741|   -0.142857|    2.784580|    1.782391|    0.152349|
+-----------------------------------------------------------------------+
|        File Writing Summary       |              Filename             |
+-----------------------------------------------------------------------+
|SU2 restart                        |solution_flow.dat                  |
|Paraview                           |flow.vtu                           |
|Paraview surface                   |surface_flow.vtu                   |
+-----------------------------------------------------------------------+

Writing the forces breakdown file (forces_breakdown.dat).
+-------------------------------------------------------------------------------------------------------+
|  Inner_Iter|   Time_Iter|    rms[Rho]|   rms[RhoU]|   rms[RhoV]|   rms[RhoE]|          CL|          CD|
+-------------------------------------------------------------------------------------------------------+
|         331|           0|   -2.673280|   -0.104881|   -0.150927|    2.777202|    1.786144|    0.153933|
|         332|           0|   -2.682970|   -0.116805|   -0.154877|    2.769174|    1.790388|    0.155539|
|         333|           0|   -2.692186|   -0.125286|   -0.154881|    2.760703|    1.795073|    0.157154|
|         334|           0|   -2.700639|   -0.130063|   -0.151428|    2.752005|    1.800140|    0.158757|
|         335|           0|   -2.708363|   -0.131360|   -0.145284|    2.743069|    1.805531|    0.160333|
|         336|           0|   -2.715357|   -0.129731|   -0.137257|    2.733902|    1.811180|    0.161863|
|         337|           0|   -2.721441|   -0.125818|   -0.128151|    2.724783|    1.817029|    0.163335|
|         338|           0|   -2.726592|   -0.120404|   -0.118708|    2.715872|    1.823008|    0.164730|
|         339|           0|   -2.731000|   -0.114181|   -0.109566|    2.707127|    1.829056|    0.166038|
|         340|           0|   -2.734702|   -0.107826|   -0.101141|    2.698706|    1.835106|    0.167244|
+-----------------------------------------------------------------------+
|        File Writing Summary       |              Filename             |
+-----------------------------------------------------------------------+
|SU2 restart                        |solution_flow.dat                  |
|Paraview                           |flow.vtu                           |
|Paraview surface                   |surface_flow.vtu                   |
+-----------------------------------------------------------------------+

Writing the forces breakdown file (forces_breakdown.dat).
+-------------------------------------------------------------------------------------------------------+
|  Inner_Iter|   Time_Iter|    rms[Rho]|   rms[RhoU]|   rms[RhoV]|   rms[RhoE]|          CL|          CD|
+-------------------------------------------------------------------------------------------------------+
|         341|           0|   -2.737810|   -0.101927|   -0.093761|    2.690697|    1.841097|    0.168337|
|         342|           0|   -2.740420|   -0.096844|   -0.087675|    2.683258|    1.846967|    0.169308|
|         343|           0|   -2.742669|   -0.092840|   -0.083025|    2.676474|    1.852660|    0.170148|
|         344|           0|   -2.744722|   -0.090075|   -0.079900|    2.670395|    1.858116|    0.170849|
|         345|           0|   -2.746777|   -0.088621|   -0.078349|    2.664991|    1.863287|    0.171408|
|         346|           0|   -2.749057|   -0.088507|   -0.078380|    2.660145|    1.868123|    0.171819|
|         347|           0|   -2.751761|   -0.089744|   -0.079974|    2.655701|    1.872585|    0.172081|
|         348|           0|   -2.754935|   -0.092290|   -0.083064|    2.651666|    1.876632|    0.172194|
|         349|           0|   -2.758755|   -0.096698|   -0.087601|    2.647747|    1.880235|    0.172159|
|         350|           0|   -2.763271|   -0.102998|   -0.093481|    2.643898|    1.883365|    0.171979|
+-----------------------------------------------------------------------+
[...]
|         905|           0|   -4.484211|   -1.322926|   -1.731506|    1.088488|    1.918058|    0.161524|
|         906|           0|   -4.514844|   -1.392901|   -1.762518|    0.999635|    1.918067|    0.161526|
|         907|           0|   -4.496765|   -1.508955|   -1.798184|    0.944254|    1.918077|    0.161528|
|         908|           0|   -4.433322|   -1.692850|   -1.823166|    0.990249|    1.918087|    0.161531|
|         909|           0|   -4.347254|   -1.870147|   -1.821594|    1.111107|    1.918099|    0.161534|
|         910|           0|   -4.249807|   -1.619785|   -1.784735|    1.251092|    1.918112|    0.161537|
+-----------------------------------------------------------------------+
|        File Writing Summary       |              Filename             |
+-----------------------------------------------------------------------+
|SU2 restart                        |solution_flow.dat                  |
|Paraview                           |flow.vtu                           |
|Paraview surface                   |surface_flow.vtu                   |
+-----------------------------------------------------------------------+

Writing the forces breakdown file (forces_breakdown.dat).
+-------------------------------------------------------------------------------------------------------+
|  Inner_Iter|   Time_Iter|    rms[Rho]|   rms[RhoU]|   rms[RhoV]|   rms[RhoE]|          CL|          CD|
+-------------------------------------------------------------------------------------------------------+
|         911|           0|   -4.143696|   -1.325897|   -1.712385|    1.391927|    1.918125|    0.161540|
|         912|           0|   -4.108760|   -1.182316|   -1.653826|    1.449806|    1.918139|    0.161544|
|         913|           0|   -4.299527|   -1.289628|   -1.700549|    1.271533|    1.918154|    0.161547|
|         914|           0|   -4.452510|   -1.395557|   -1.746309|    1.105131|    1.918170|    0.161551|
|         915|           0|   -4.520178|   -1.496913|   -1.782785|    0.984821|    1.918185|    0.161555|
|         916|           0|   -4.526133|   -1.591509|   -1.809914|    0.928938|    1.918202|    0.161558|
|         917|           0|   -4.523925|   -1.677497|   -1.829773|    0.908258|    1.918218|    0.161562|
|         918|           0|   -4.534786|   -1.751847|   -1.844032|    0.890839|    1.918236|    0.161566|
|         919|           0|   -4.564041|   -1.810667|   -1.853992|    0.861236|    1.918253|    0.161569|
|         920|           0|   -4.607117|   -1.852244|   -1.861015|    0.820788|    1.918271|    0.161572|
+-----------------------------------------------------------------------+
|        File Writing Summary       |              Filename             |
+-----------------------------------------------------------------------+
|SU2 restart                        |solution_flow.dat                  |
|Paraview                           |flow.vtu                           |
|Paraview surface                   |surface_flow.vtu                   |
+-----------------------------------------------------------------------+

Writing the forces breakdown file (forces_breakdown.dat).
+-------------------------------------------------------------------------------------------------------+
|  Inner_Iter|   Time_Iter|    rms[Rho]|   rms[RhoU]|   rms[RhoV]|   rms[RhoE]|          CL|          CD|
+-------------------------------------------------------------------------------------------------------+
|         921|           0|   -4.660437|   -1.879611|   -1.866679|    0.771983|    1.918288|    0.161575|
|         922|           0|   -4.720170|   -1.898591|   -1.872087|    0.718415|    1.918307|    0.161578|
|         923|           0|   -4.696477|   -1.996754|   -1.878317|    0.761528|    1.918324|    0.161580|
|         924|           0|   -4.583132|   -1.865810|   -1.874853|    0.920907|    1.918342|    0.161583|
|         925|           0|   -4.484101|   -1.615839|   -1.852452|    1.056651|    1.918358|    0.161585|
|         926|           0|   -4.417424|   -1.447379|   -1.816015|    1.148299|    1.918376|    0.161587|
|         927|           0|   -4.388563|   -1.346768|   -1.779948|    1.194587|    1.918392|    0.161588|
|         928|           0|   -4.397002|   -1.298650|   -1.757422|    1.197278|    1.918409|    0.161590|
|         929|           0|   -4.435646|   -1.293868|   -1.755257|    1.159663|    1.918425|    0.161591|
|         930|           0|   -4.486915|   -1.327466|   -1.774572|    1.087649|    1.918441|    0.161593|
+-----------------------------------------------------------------------+
|        File Writing Summary       |              Filename             |
+-----------------------------------------------------------------------+
|SU2 restart                        |solution_flow.dat                  |
|Paraview                           |flow.vtu                           |
|Paraview surface                   |surface_flow.vtu                   |
+-----------------------------------------------------------------------+

Writing the forces breakdown file (forces_breakdown.dat).
+-------------------------------------------------------------------------------------------------------+
|  Inner_Iter|   Time_Iter|    rms[Rho]|   rms[RhoU]|   rms[RhoV]|   rms[RhoE]|          CL|          CD|
+-------------------------------------------------------------------------------------------------------+
|         931|           0|   -4.518170|   -1.399769|   -1.811314|    0.998259|    1.918455|    0.161593|
|         932|           0|   -4.499315|   -1.520630|   -1.854455|    0.943792|    1.918470|    0.161594|
|         933|           0|   -4.435102|   -1.717914|   -1.884355|    0.991014|    1.918483|    0.161593|
|         934|           0|   -4.347753|   -1.914851|   -1.879370|    1.113082|    1.918495|    0.161593|
|         935|           0|   -4.249080|   -1.624552|   -1.830311|    1.253720|    1.918507|    0.161592|
|         936|           0|   -4.142297|   -1.322817|   -1.742406|    1.394684|    1.918519|    0.161592|
|         937|           0|   -4.112396|   -1.184358|   -1.678290|    1.447157|    1.918531|    0.161591|
|         938|           0|   -4.304274|   -1.292550|   -1.730739|    1.268310|    1.918542|    0.161590|
|         939|           0|   -4.457165|   -1.399818|   -1.783484|    1.101838|    1.918552|    0.161588|
|         940|           0|   -4.522815|   -1.503114|   -1.826810|    0.982566|    1.918561|    0.161587|
+-----------------------------------------------------------------------+
|        File Writing Summary       |              Filename             |
+-----------------------------------------------------------------------+
|SU2 restart                        |solution_flow.dat                  |
|Paraview                           |flow.vtu                           |
|Paraview surface                   |surface_flow.vtu                   |
+-----------------------------------------------------------------------+

Writing the forces breakdown file (forces_breakdown.dat).
+-------------------------------------------------------------------------------------------------------+
|  Inner_Iter|   Time_Iter|    rms[Rho]|   rms[RhoU]|   rms[RhoV]|   rms[RhoE]|          CL|          CD|
+-------------------------------------------------------------------------------------------------------+
|         941|           0|   -4.527717|   -1.600342|   -1.859858|    0.927359|    1.918569|    0.161585|
|         942|           0|   -4.524703|   -1.689591|   -1.884329|    0.907510|    1.918578|    0.161583|
|         943|           0|   -4.535211|   -1.767535|   -1.901717|    0.890456|    1.918584|    0.161581|
|         944|           0|   -4.564054|   -1.829645|   -1.913438|    0.861255|    1.918590|    0.161579|
|         945|           0|   -4.607685|   -1.873475|   -1.921168|    0.819995|    1.918596|    0.161577|
|         946|           0|   -4.661540|   -1.901942|   -1.926884|    0.770392|    1.918601|    0.161575|
|         947|           0|   -4.721322|   -1.921376|   -1.932140|    0.716468|    1.918605|    0.161572|
|         948|           0|   -4.694647|   -2.033507|   -1.938046|    0.763413|    1.918609|    0.161570|
|         949|           0|   -4.581620|   -1.879271|   -1.930625|    0.923025|    1.918612|    0.161568|
|         950|           0|   -4.483054|   -1.617748|   -1.899442|    1.058304|    1.918615|    0.161566|
+-----------------------------------------------------------------------+
|        File Writing Summary       |              Filename             |
+-----------------------------------------------------------------------+
|SU2 restart                        |solution_flow.dat                  |
|Paraview                           |flow.vtu                           |
|Paraview surface                   |surface_flow.vtu                   |
+-----------------------------------------------------------------------+

Writing the forces breakdown file (forces_breakdown.dat).
+-------------------------------------------------------------------------------------------------------+
|  Inner_Iter|   Time_Iter|    rms[Rho]|   rms[RhoU]|   rms[RhoV]|   rms[RhoE]|          CL|          CD|
+-------------------------------------------------------------------------------------------------------+
|         951|           0|   -4.416873|   -1.447475|   -1.853042|    1.149404|    1.918618|    0.161564|
|         952|           0|   -4.388670|   -1.346798|   -1.809617|    1.195017|    1.918621|    0.161562|
|         953|           0|   -4.398189|   -1.299043|   -1.783350|    1.196781|    1.918623|    0.161560|
|         954|           0|   -4.438216|   -1.294779|   -1.780725|    1.158038|    1.918626|    0.161558|
|         955|           0|   -4.490212|   -1.329036|   -1.802628|    1.084986|    1.918628|    0.161557|
|         956|           0|   -4.521528|   -1.402310|   -1.845153|    0.994460|    1.918630|    0.161556|
|         957|           0|   -4.502186|   -1.525039|   -1.896748|    0.939432|    1.918633|    0.161554|
|         958|           0|   -4.436460|   -1.727379|   -1.933890|    0.988966|    1.918636|    0.161554|
|         959|           0|   -4.348155|   -1.929942|   -1.927837|    1.112902|    1.918638|    0.161553|
|         960|           0|   -4.248383|   -1.624001|   -1.868165|    1.254921|    1.918643|    0.161553|
+-----------------------------------------------------------------------+
|        File Writing Summary       |              Filename             |
+-----------------------------------------------------------------------+
|SU2 restart                        |solution_flow.dat                  |
|Paraview                           |flow.vtu                           |
|Paraview surface                   |surface_flow.vtu                   |
+-----------------------------------------------------------------------+

Writing the forces breakdown file (forces_breakdown.dat).
+-------------------------------------------------------------------------------------------------------+
|  Inner_Iter|   Time_Iter|    rms[Rho]|   rms[RhoU]|   rms[RhoV]|   rms[RhoE]|          CL|          CD|
+-------------------------------------------------------------------------------------------------------+
|         961|           0|   -4.141304|   -1.320496|   -1.766631|    1.396113|    1.918646|    0.161552|
|         962|           0|   -4.115315|   -1.186449|   -1.698166|    1.444517|    1.918650|    0.161553|
|         963|           0|   -4.307808|   -1.294951|   -1.755804|    1.265198|    1.918653|    0.161552|
|         964|           0|   -4.461174|   -1.402671|   -1.814910|    1.098211|    1.918658|    0.161552|
|         965|           0|   -4.527190|   -1.506700|   -1.864581|    0.978232|    1.918661|    0.161552|
|         966|           0|   -4.531681|   -1.605130|   -1.903166|    0.923152|    1.918667|    0.161553|
|         967|           0|   -4.528665|   -1.696234|   -1.932041|    0.903253|    1.918671|    0.161554|
|         968|           0|   -4.539719|   -1.776746|   -1.952599|    0.885635|    1.918678|    0.161555|
|         969|           0|   -4.569498|   -1.841885|   -1.966312|    0.855276|    1.918683|    0.161556|
|         970|           0|   -4.614971|   -1.888611|   -1.975162|    0.811784|    1.918691|    0.161557|
+-----------------------------------------------------------------------+
|        File Writing Summary       |              Filename             |
+-----------------------------------------------------------------------+
|SU2 restart                        |solution_flow.dat                  |
|Paraview                           |flow.vtu                           |
|Paraview surface                   |surface_flow.vtu                   |
+-----------------------------------------------------------------------+

Writing the forces breakdown file (forces_breakdown.dat).
+-------------------------------------------------------------------------------------------------------+
|  Inner_Iter|   Time_Iter|    rms[Rho]|   rms[RhoU]|   rms[RhoV]|   rms[RhoE]|          CL|          CD|
+-------------------------------------------------------------------------------------------------------+
|         971|           0|   -4.670118|   -1.919396|   -1.981563|    0.760643|    1.918697|    0.161558|
|         972|           0|   -4.731975|   -1.940680|   -1.987470|    0.704249|    1.918704|    0.161560|
|         973|           0|   -4.702340|   -2.067123|   -1.994062|    0.755621|    1.918710|    0.161561|
|         974|           0|   -4.585006|   -1.887105|   -1.982880|    0.921101|    1.918719|    0.161563|
|         975|           0|   -4.484791|   -1.617350|   -1.942410|    1.057973|    1.918727|    0.161564|
|         976|           0|   -4.418034|   -1.446489|   -1.886023|    1.149320|    1.918737|    0.161566|
|         977|           0|   -4.390025|   -1.346294|   -1.835788|    1.194520|    1.918746|    0.161568|
|         978|           0|   -4.399838|   -1.299219|   -1.806340|    1.195744|    1.918757|    0.161571|
|         979|           0|   -4.439673|   -1.295697|   -1.803584|    1.156614|    1.918766|    0.161573|
|         980|           0|   -4.491100|   -1.330814|   -1.828185|    1.083246|    1.918776|    0.161575|
+-----------------------------------------------------------------------+
|        File Writing Summary       |              Filename             |
+-----------------------------------------------------------------------+
|SU2 restart                        |solution_flow.dat                  |
|Paraview                           |flow.vtu                           |
|Paraview surface                   |surface_flow.vtu                   |
+-----------------------------------------------------------------------+

Writing the forces breakdown file (forces_breakdown.dat).
+-------------------------------------------------------------------------------------------------------+
|  Inner_Iter|   Time_Iter|    rms[Rho]|   rms[RhoU]|   rms[RhoV]|   rms[RhoE]|          CL|          CD|
+-------------------------------------------------------------------------------------------------------+
|         981|           0|   -4.521595|   -1.405312|   -1.876463|    0.992613|    1.918786|    0.161576|
|         982|           0|   -4.500926|   -1.530392|   -1.936469|    0.939171|    1.918797|    0.161578|
|         983|           0|   -4.434713|   -1.739444|   -1.980415|    0.990538|    1.918806|    0.161580|
|         984|           0|   -4.346296|   -1.951268|   -1.971304|    1.115098|    1.918817|    0.161582|
|         985|           0|   -4.246569|   -1.624343|   -1.899159|    1.257095|    1.918827|    0.161583|
|         986|           0|   -4.139749|   -1.318326|   -1.784608|    1.397982|    1.918838|    0.161585|
|         987|           0|   -4.117387|   -1.188165|   -1.712939|    1.442608|    1.918847|    0.161586|
|         988|           0|   -4.309848|   -1.297148|   -1.775010|    1.263167|    1.918857|    0.161588|
|         989|           0|   -4.463259|   -1.405652|   -1.840227|    1.095802|    1.918866|    0.161588|
|         990|           0|   -4.528622|   -1.510925|   -1.896918|    0.975906|    1.918876|    0.161590|
+-----------------------------------------------------------------------+
|        File Writing Summary       |              Filename             |
+-----------------------------------------------------------------------+
|SU2 restart                        |solution_flow.dat                  |
|Paraview                           |flow.vtu                           |
|Paraview surface                   |surface_flow.vtu                   |
+-----------------------------------------------------------------------+

Writing the forces breakdown file (forces_breakdown.dat).
+-------------------------------------------------------------------------------------------------------+
|  Inner_Iter|   Time_Iter|    rms[Rho]|   rms[RhoU]|   rms[RhoV]|   rms[RhoE]|          CL|          CD|
+-------------------------------------------------------------------------------------------------------+
|         991|           0|   -4.532332|   -1.611209|   -1.942695|    0.921577|    1.918885|    0.161590|
|         992|           0|   -4.529128|   -1.704885|   -1.978313|    0.902161|    1.918895|    0.161591|
|         993|           0|   -4.540643|   -1.788621|   -2.004511|    0.884155|    1.918903|    0.161592|
|         994|           0|   -4.570699|   -1.857144|   -2.022379|    0.853687|    1.918913|    0.161592|
|         995|           0|   -4.615945|   -1.906695|   -2.033851|    0.810725|    1.918921|    0.161592|
|         996|           0|   -4.671259|   -1.939454|   -2.041803|    0.759717|    1.918930|    0.161593|
|         997|           0|   -4.734498|   -1.962102|   -2.048806|    0.702100|    1.918937|    0.161592|
|         998|           0|   -4.700885|   -2.109160|   -2.056001|    0.758500|    1.918945|    0.161593|
|         999|           0|   -4.582586|   -1.898149|   -2.038563|    0.924711|    1.918952|    0.161592|

----------------------------- Solver Exit -------------------------------

Maximum number of iterations reached (ITER = 1000) before convergence.
+-----------------------------------------------------------------------+
|      Convergence Field     |     Value    |   Criterion  |  Converged |
+-----------------------------------------------------------------------+
|                  Cauchy[CD]|    9.8761e-06|       < 1e-10|          No|
+-----------------------------------------------------------------------+
-------------------------------------------------------------------------
+-----------------------------------------------------------------------+
|        File Writing Summary       |              Filename             |
+-----------------------------------------------------------------------+
|SU2 restart                        |solution_flow.dat                  |
|Paraview                           |flow.vtu                           |
|Paraview surface                   |surface_flow.vtu                   |
+-----------------------------------------------------------------------+

Writing the forces breakdown file (forces_breakdown.dat).

------------------------- Solver Postprocessing -------------------------
Deleted CNumerics container.
Deleted CIntegration container.
Deleted CSolver container.
Deleted CIteration container.
Deleted CInterpolator container.
Deleted CInterface container.
Deleted CGeometry container.
Deleted CFreeFormDefBox class.
Deleted CSurfaceMovement class.
Deleted CVolumetricMovement class.
Deleted CConfig container.
Deleted nInst container.
Deleted COutput class.
-------------------------------------------------------------------------

------------------------- Exit Success (SU2_CFD) ------------------------

