
-------------------------------------------------------------------------
|    ___ _   _ ___                                                      |
|   / __| | | |_  )   Release 7.0.3 "Blackbird"                       |
|   \__ \ |_| |/ /                                                    |
|   |___/\___//___|   Suite (Computational Fluid Dynamics Code)        |
|                                                                       |
-------------------------------------------------------------------------
| SU2 Project Website: https://su2code.github.io                        |
|                                                                       |
| The SU2 Project is maintained by the SU2 Foundation                   |
| (http://su2foundation.org)                                            |
-------------------------------------------------------------------------
| Copyright 2012-2020, SU2 Contributors                                 |
|                                                                       |
| SU2 is free software; you can redistribute it and/or                  |
| modify it under the terms of the GNU Lesser General Public            |
| License as published by the Free Software Foundation; either          |
| version 2.1 of the License, or (at your option) any later version.    |
|                                                                       |
| SU2 is distributed in the hope that it will be useful,                |
| but WITHOUT ANY WARRANTY; without even the implied warranty of        |
| MERCHANTABILITY or FITNESS FOR A PARTICULAR PURPOSE. See the GNU      |
| Lesser General Public License for more details.                       |
|                                                                       |
| You should have received a copy of the GNU Lesser General Public      |
| License along with SU2. If not, see <http://www.gnu.org/licenses/>.   |
-------------------------------------------------------------------------


Problem definition:

Compressible Euler equations.
Mach number: 0.3.
Angle of attack (AoA): 2 deg, and angle of sideslip (AoS): 0 deg.
Dimensional simulation.
The reference area is 55.7983 m^2.
The reference length is 1.8008 m.


Problem definition:

Inviscid flow: Computing density based on free-stream
temperature and pressure using the ideal gas law.
Force coefficients computed using free-stream values.
-- Input conditions:
Fluid Model: STANDARD_AIR 
Specific gas constant: 287.058 N.m/kg.K.
Specific gas constant (non-dim): 287.058
Specific Heat Ratio: 1.4000 
Free-stream static pressure: 101325 Pa.
Free-stream total pressure: 107853 Pa.
Free-stream temperature: 288.15 K.
Free-stream total temperature: 293.337 K.
Free-stream density: 1.22498 kg/m^3.
Free-stream velocity: (102.027, 0, 3.56286) m/s. Magnitude: 102.089 m/s.
Free-stream total energy per unit mass: 212000 m^2/s^2.
-- Reference values:
Reference specific gas constant: 1 N.m/kg.K.
Reference pressure: 1 Pa.
Reference temperature: 1 K.
Reference density: 1 kg/m^3.
Reference velocity: 1 m/s.
Reference energy per unit mass: 1 m^2/s^2.
-- Resulting non-dimensional state:
Mach number (non-dim): 0.3
Specific gas constant (non-dim): 287.058
Free-stream temperature (non-dim): 288.15
Free-stream pressure (non-dim): 101325
Free-stream density (non-dim): 1.22498
Free-stream velocity (non-dim): (102.027, 0, 3.56286). Magnitude: 102.089
Free-stream total energy per unit mass (non-dim): 212000


Forces breakdown:

Center of Pressure: X=-0.009315Z+9.955828 m.

NOTE: Multiply forces by the non-dimensional factor: 356187.053093, and the reference factor: 1.000000
to obtain the dimensional force.

Total CL:       0.443131 | Pressure (   99%):    0.443131 | Friction (    0%):    0.000000 | Momentum (    0%):    0.000000
Total CD:       0.011343 | Pressure (   99%):    0.011343 | Friction (    0%):    0.000000 | Momentum (    0%):    0.000000
Total CSF:      0.001948 | Pressure (   99%):    0.001948 | Friction (    0%):    0.000000 | Momentum (    0%):    0.000000
Total CL/CD:   39.066146 | Pressure (  100%):   39.066146 | Friction (    0%):    0.000000 | Momentum (    0%):    0.000000
Total CMx:      0.005176 | Pressure (   99%):    0.005176 | Friction (    0%):    0.000000 | Momentum (    0%):    0.000000
Total CMy:     -0.078959 | Pressure (  100%):   -0.078959 | Friction (    0%):    0.000000 | Momentum (    0%):    0.000000
Total CMz:      0.004597 | Pressure (   99%):    0.004597 | Friction (    0%):    0.000000 | Momentum (    0%):    0.000000
Total CFx:     -0.004129 | Pressure (  100%):   -0.004129 | Friction (    0%):    0.000000 | Momentum (    0%):    0.000000
Total CFy:      0.001948 | Pressure (   99%):    0.001948 | Friction (    0%):    0.000000 | Momentum (    0%):    0.000000
Total CFz:      0.443257 | Pressure (   99%):    0.443257 | Friction (    0%):    0.000000 | Momentum (    0%):    0.000000


Surface name: VTP

Total CL    (    0%):    0.000372 | Pressure (   99%):    0.000372 | Friction (    0%):    0.000000 | Momentum (    0%):    0.000000
Total CD    (    2%):    0.000237 | Pressure (   99%):    0.000237 | Friction (    0%):    0.000000 | Momentum (    0%):    0.000000
Total CSF   (   25%):    0.000488 | Pressure (   99%):    0.000488 | Friction (    0%):    0.000000 | Momentum (    0%):    0.000000
Total CL/CD (    4%):    1.566717 | Pressure (  100%):    1.566717 | Friction (    0%):    0.000000 | Momentum (    0%):    0.000000
Total CMx   (  -10%):   -0.000525 | Pressure (  100%):   -0.000525 | Friction (    0%):    0.000000 | Momentum (    0%):    0.000000
Total CMy   (    1%):   -0.000836 | Pressure (  100%):   -0.000836 | Friction (    0%):    0.000000 | Momentum (    0%):    0.000000
Total CMz   (   32%):    0.001474 | Pressure (   99%):    0.001474 | Friction (    0%):    0.000000 | Momentum (    0%):    0.000000
Total CFx   (   -5%):    0.000224 | Pressure (   99%):    0.000224 | Friction (    0%):    0.000000 | Momentum (    0%):    0.000000
Total CFy   (   25%):    0.000488 | Pressure (   99%):    0.000488 | Friction (    0%):    0.000000 | Momentum (    0%):    0.000000
Total CFz   (    0%):    0.000380 | Pressure (   99%):    0.000380 | Friction (    0%):    0.000000 | Momentum (    0%):    0.000000

Surface name: Fuselage

Total CL    (    6%):    0.029846 | Pressure (   99%):    0.029846 | Friction (    0%):    0.000000 | Momentum (    0%):    0.000000
Total CD    (   28%):    0.003241 | Pressure (   99%):    0.003241 | Friction (    0%):    0.000000 | Momentum (    0%):    0.000000
Total CSF   (   61%):    0.001203 | Pressure (   99%):    0.001203 | Friction (    0%):    0.000000 | Momentum (    0%):    0.000000
Total CL/CD (   23%):    9.209163 | Pressure (  100%):    9.209163 | Friction (    0%):    0.000000 | Momentum (    0%):    0.000000
Total CMx   (   -4%):   -0.000214 | Pressure (  100%):   -0.000214 | Friction (    0%):    0.000000 | Momentum (    0%):    0.000000
Total CMy   (  -21%):    0.016753 | Pressure (   99%):    0.016753 | Friction (    0%):    0.000000 | Momentum (    0%):    0.000000
Total CMz   (    5%):    0.000239 | Pressure (   99%):    0.000239 | Friction (    0%):    0.000000 | Momentum (    0%):    0.000000
Total CFx   (  -53%):    0.002197 | Pressure (   99%):    0.002197 | Friction (    0%):    0.000000 | Momentum (    0%):    0.000000
Total CFy   (   61%):    0.001203 | Pressure (   99%):    0.001203 | Friction (    0%):    0.000000 | Momentum (    0%):    0.000000
Total CFz   (    6%):    0.029941 | Pressure (   99%):    0.029941 | Friction (    0%):    0.000000 | Momentum (    0%):    0.000000

Surface name: HTP

Total CL    (   -6%):   -0.027244 | Pressure (  100%):   -0.027244 | Friction (    0%):    0.000000 | Momentum (    0%):    0.000000
Total CD    (   -6%):   -0.000740 | Pressure (  100%):   -0.000740 | Friction (    0%):    0.000000 | Momentum (    0%):    0.000000
Total CSF   (    0%):   -0.000005 | Pressure (  100%):   -0.000005 | Friction (    0%):    0.000000 | Momentum (    0%):    0.000000
Total CL/CD (   94%):   36.797299 | Pressure (  100%):   36.797299 | Friction (    0%):    0.000000 | Momentum (    0%):    0.000000
Total CMx   (   -7%):   -0.000362 | Pressure (  100%):   -0.000362 | Friction (    0%):    0.000000 | Momentum (    0%):    0.000000
Total CMy   ( -117%):    0.093074 | Pressure (   99%):    0.093074 | Friction (    0%):    0.000000 | Momentum (    0%):    0.000000
Total CMz   (    0%):    0.000001 | Pressure (   99%):    0.000001 | Friction (    0%):    0.000000 | Momentum (    0%):    0.000000
Total CFx   (   -5%):    0.000211 | Pressure (   99%):    0.000211 | Friction (    0%):    0.000000 | Momentum (    0%):    0.000000
Total CFy   (    0%):   -0.000005 | Pressure (  100%):   -0.000005 | Friction (    0%):    0.000000 | Momentum (    0%):    0.000000
Total CFz   (   -6%):   -0.027253 | Pressure (  100%):   -0.027253 | Friction (    0%):    0.000000 | Momentum (    0%):    0.000000

Surface name: Wing

Total CL    (   99%):    0.440156 | Pressure (   99%):    0.440156 | Friction (    0%):    0.000000 | Momentum (    0%):    0.000000
Total CD    (   75%):    0.008605 | Pressure (   99%):    0.008605 | Friction (    0%):    0.000000 | Momentum (    0%):    0.000000
Total CSF   (   13%):    0.000263 | Pressure (   99%):    0.000263 | Friction (    0%):    0.000000 | Momentum (    0%):    0.000000
Total CL/CD (  130%):   51.150909 | Pressure (  100%):   51.150909 | Friction (    0%):    0.000000 | Momentum (    0%):    0.000000
Total CMx   (  121%):    0.006277 | Pressure (   99%):    0.006277 | Friction (    0%):    0.000000 | Momentum (    0%):    0.000000
Total CMy   (  238%):   -0.187950 | Pressure (  100%):   -0.187950 | Friction (    0%):    0.000000 | Momentum (    0%):    0.000000
Total CMz   (   62%):    0.002883 | Pressure (   99%):    0.002883 | Friction (    0%):    0.000000 | Momentum (    0%):    0.000000
Total CFx   (  163%):   -0.006761 | Pressure (  100%):   -0.006761 | Friction (    0%):    0.000000 | Momentum (    0%):    0.000000
Total CFy   (   13%):    0.000263 | Pressure (   99%):    0.000263 | Friction (    0%):    0.000000 | Momentum (    0%):    0.000000
Total CFz   (   99%):    0.440188 | Pressure (   99%):    0.440188 | Friction (    0%):    0.000000 | Momentum (    0%):    0.000000

