
-------------------------------------------------------------------------
|    ___ _   _ ___                                                      |
|   / __| | | |_  )   Release 7.0.3 "Blackbird"                       |
|   \__ \ |_| |/ /                                                    |
|   |___/\___//___|   Suite (Computational Fluid Dynamics Code)        |
|                                                                       |
-------------------------------------------------------------------------
| SU2 Project Website: https://su2code.github.io                        |
|                                                                       |
| The SU2 Project is maintained by the SU2 Foundation                   |
| (http://su2foundation.org)                                            |
-------------------------------------------------------------------------
| Copyright 2012-2020, SU2 Contributors                                 |
|                                                                       |
| SU2 is free software; you can redistribute it and/or                  |
| modify it under the terms of the GNU Lesser General Public            |
| License as published by the Free Software Foundation; either          |
| version 2.1 of the License, or (at your option) any later version.    |
|                                                                       |
| SU2 is distributed in the hope that it will be useful,                |
| but WITHOUT ANY WARRANTY; without even the implied warranty of        |
| MERCHANTABILITY or FITNESS FOR A PARTICULAR PURPOSE. See the GNU      |
| Lesser General Public License for more details.                       |
|                                                                       |
| You should have received a copy of the GNU Lesser General Public      |
| License along with SU2. If not, see <http://www.gnu.org/licenses/>.   |
-------------------------------------------------------------------------


Problem definition:

Compressible Euler equations.
Mach number: 0.3.
Angle of attack (AoA): 2 deg, and angle of sideslip (AoS): 0 deg.
Dimensional simulation.
The reference area is 55.7983 m^2.
The reference length is 1.8008 m.


Problem definition:

Inviscid flow: Computing density based on free-stream
temperature and pressure using the ideal gas law.
Force coefficients computed using free-stream values.
-- Input conditions:
Fluid Model: STANDARD_AIR 
Specific gas constant: 287.058 N.m/kg.K.
Specific gas constant (non-dim): 287.058
Specific Heat Ratio: 1.4000 
Free-stream static pressure: 101325 Pa.
Free-stream total pressure: 107853 Pa.
Free-stream temperature: 288.15 K.
Free-stream total temperature: 293.337 K.
Free-stream density: 1.22498 kg/m^3.
Free-stream velocity: (102.027, 0, 3.56286) m/s. Magnitude: 102.089 m/s.
Free-stream total energy per unit mass: 212000 m^2/s^2.
-- Reference values:
Reference specific gas constant: 1 N.m/kg.K.
Reference pressure: 1 Pa.
Reference temperature: 1 K.
Reference density: 1 kg/m^3.
Reference velocity: 1 m/s.
Reference energy per unit mass: 1 m^2/s^2.
-- Resulting non-dimensional state:
Mach number (non-dim): 0.3
Specific gas constant (non-dim): 287.058
Free-stream temperature (non-dim): 288.15
Free-stream pressure (non-dim): 101325
Free-stream density (non-dim): 1.22498
Free-stream velocity (non-dim): (102.027, 0, 3.56286). Magnitude: 102.089
Free-stream total energy per unit mass (non-dim): 212000


Forces breakdown:

Center of Pressure: X=0.123478Z+11.297165 m.

NOTE: Multiply forces by the non-dimensional factor: 356187.053093, and the reference factor: 1.000000
to obtain the dimensional force.

Total CL:      -0.722883 | Pressure (  100%):   -0.722883 | Friction (    0%):    0.000000 | Momentum (    0%):    0.000000
Total CD:      -0.115000 | Pressure (  100%):   -0.115000 | Friction (    0%):    0.000000 | Momentum (    0%):    0.000000
Total CSF:     -0.459814 | Pressure (  100%):   -0.459814 | Friction (    0%):    0.000000 | Momentum (    0%):    0.000000
Total CL/CD:    6.285952 | Pressure (  100%):    6.285952 | Friction (    0%):    0.000000 | Momentum (    0%):    0.000000
Total CMx:     -0.795623 | Pressure (  100%):   -0.795623 | Friction (    0%):    0.000000 | Momentum (    0%):    0.000000
Total CMy:      0.805920 | Pressure (   99%):    0.805920 | Friction (    0%):    0.000000 | Momentum (    0%):    0.000000
Total CMz:     -0.581438 | Pressure (  100%):   -0.581438 | Friction (    0%):    0.000000 | Momentum (    0%):    0.000000
Total CFx:     -0.089701 | Pressure (  100%):   -0.089701 | Friction (    0%):    0.000000 | Momentum (    0%):    0.000000
Total CFy:     -0.459814 | Pressure (  100%):   -0.459814 | Friction (    0%):    0.000000 | Momentum (    0%):    0.000000
Total CFz:     -0.726456 | Pressure (  100%):   -0.726456 | Friction (    0%):    0.000000 | Momentum (    0%):    0.000000


Surface name: VTP

Total CL    (    1%):   -0.009368 | Pressure (  100%):   -0.009368 | Friction (    0%):    0.000000 | Momentum (    0%):    0.000000
Total CD    (   -3%):    0.003870 | Pressure (   99%):    0.003870 | Friction (    0%):    0.000000 | Momentum (    0%):    0.000000
Total CSF   (   26%):   -0.123707 | Pressure (  100%):   -0.123707 | Friction (    0%):    0.000000 | Momentum (    0%):    0.000000
Total CL/CD (  -38%):   -2.420962 | Pressure (  100%):   -2.420962 | Friction (    0%):    0.000000 | Momentum (    0%):    0.000000
Total CMx   (  -16%):    0.128948 | Pressure (   99%):    0.128948 | Friction (    0%):    0.000000 | Momentum (    0%):    0.000000
Total CMy   (    3%):    0.027939 | Pressure (   99%):    0.027939 | Friction (    0%):    0.000000 | Momentum (    0%):    0.000000
Total CMz   (   67%):   -0.390171 | Pressure (  100%):   -0.390171 | Friction (    0%):    0.000000 | Momentum (    0%):    0.000000
Total CFx   (   -4%):    0.004194 | Pressure (   99%):    0.004194 | Friction (    0%):    0.000000 | Momentum (    0%):    0.000000
Total CFy   (   26%):   -0.123707 | Pressure (  100%):   -0.123707 | Friction (    0%):    0.000000 | Momentum (    0%):    0.000000
Total CFz   (    1%):   -0.009227 | Pressure (  100%):   -0.009227 | Friction (    0%):    0.000000 | Momentum (    0%):    0.000000

Surface name: Fuselage

Total CL    (   25%):   -0.183907 | Pressure (  100%):   -0.183907 | Friction (    0%):    0.000000 | Momentum (    0%):    0.000000
Total CD    (   41%):   -0.048231 | Pressure (  100%):   -0.048231 | Friction (    0%):    0.000000 | Momentum (    0%):    0.000000
Total CSF   (   77%):   -0.358344 | Pressure (  100%):   -0.358344 | Friction (    0%):    0.000000 | Momentum (    0%):    0.000000
Total CL/CD (   60%):    3.813075 | Pressure (  100%):    3.813075 | Friction (    0%):    0.000000 | Momentum (    0%):    0.000000
Total CMx   (  -14%):    0.115889 | Pressure (   99%):    0.115889 | Friction (    0%):    0.000000 | Momentum (    0%):    0.000000
Total CMy   (   36%):    0.297834 | Pressure (   99%):    0.297834 | Friction (    0%):    0.000000 | Momentum (    0%):    0.000000
Total CMz   (   51%):   -0.299943 | Pressure (  100%):   -0.299943 | Friction (    0%):    0.000000 | Momentum (    0%):    0.000000
Total CFx   (   46%):   -0.041783 | Pressure (  100%):   -0.041783 | Friction (    0%):    0.000000 | Momentum (    0%):    0.000000
Total CFy   (   77%):   -0.358344 | Pressure (  100%):   -0.358344 | Friction (    0%):    0.000000 | Momentum (    0%):    0.000000
Total CFz   (   25%):   -0.185478 | Pressure (  100%):   -0.185478 | Friction (    0%):    0.000000 | Momentum (    0%):    0.000000

Surface name: HTP

Total CL    (   11%):   -0.081754 | Pressure (  100%):   -0.081754 | Friction (    0%):    0.000000 | Momentum (    0%):    0.000000
Total CD    (    1%):   -0.001875 | Pressure (  100%):   -0.001875 | Friction (    0%):    0.000000 | Momentum (    0%):    0.000000
Total CSF   (    1%):   -0.005518 | Pressure (  100%):   -0.005518 | Friction (    0%):    0.000000 | Momentum (    0%):    0.000000
Total CL/CD (  693%):   43.601874 | Pressure (  100%):   43.601874 | Friction (    0%):    0.000000 | Momentum (    0%):    0.000000
Total CMx   (   -5%):    0.042532 | Pressure (   99%):    0.042532 | Friction (    0%):    0.000000 | Momentum (    0%):    0.000000
Total CMy   (   35%):    0.286092 | Pressure (   99%):    0.286092 | Friction (    0%):    0.000000 | Momentum (    0%):    0.000000
Total CMz   (    2%):   -0.014343 | Pressure (  100%):   -0.014343 | Friction (    0%):    0.000000 | Momentum (    0%):    0.000000
Total CFx   (   -1%):    0.000979 | Pressure (   99%):    0.000979 | Friction (    0%):    0.000000 | Momentum (    0%):    0.000000
Total CFy   (    1%):   -0.005518 | Pressure (  100%):   -0.005518 | Friction (    0%):    0.000000 | Momentum (    0%):    0.000000
Total CFz   (   11%):   -0.081770 | Pressure (  100%):   -0.081770 | Friction (    0%):    0.000000 | Momentum (    0%):    0.000000

Surface name: Wing

Total CL    (   61%):   -0.447854 | Pressure (  100%):   -0.447854 | Friction (    0%):    0.000000 | Momentum (    0%):    0.000000
Total CD    (   59%):   -0.068764 | Pressure (  100%):   -0.068764 | Friction (    0%):    0.000000 | Momentum (    0%):    0.000000
Total CSF   (   -6%):    0.027755 | Pressure (   99%):    0.027755 | Friction (    0%):    0.000000 | Momentum (    0%):    0.000000
Total CL/CD (  103%):    6.512927 | Pressure (  100%):    6.512927 | Friction (    0%):    0.000000 | Momentum (    0%):    0.000000
Total CMx   (  136%):   -1.082992 | Pressure (  100%):   -1.082992 | Friction (    0%):    0.000000 | Momentum (    0%):    0.000000
Total CMy   (   24%):    0.194056 | Pressure (   99%):    0.194056 | Friction (    0%):    0.000000 | Momentum (    0%):    0.000000
Total CMz   (  -21%):    0.123019 | Pressure (   99%):    0.123019 | Friction (    0%):    0.000000 | Momentum (    0%):    0.000000
Total CFx   (   59%):   -0.053092 | Pressure (  100%):   -0.053092 | Friction (    0%):    0.000000 | Momentum (    0%):    0.000000
Total CFy   (   -6%):    0.027755 | Pressure (   99%):    0.027755 | Friction (    0%):    0.000000 | Momentum (    0%):    0.000000
Total CFz   (   61%):   -0.449981 | Pressure (  100%):   -0.449981 | Friction (    0%):    0.000000 | Momentum (    0%):    0.000000

