
-------------------------------------------------------------------------
|    ___ _   _ ___                                                      |
|   / __| | | |_  )   Release 7.0.3 "Blackbird"                       |
|   \__ \ |_| |/ /                                                    |
|   |___/\___//___|   Suite (Computational Fluid Dynamics Code)        |
|                                                                       |
-------------------------------------------------------------------------
| SU2 Project Website: https://su2code.github.io                        |
|                                                                       |
| The SU2 Project is maintained by the SU2 Foundation                   |
| (http://su2foundation.org)                                            |
-------------------------------------------------------------------------
| Copyright 2012-2020, SU2 Contributors                                 |
|                                                                       |
| SU2 is free software; you can redistribute it and/or                  |
| modify it under the terms of the GNU Lesser General Public            |
| License as published by the Free Software Foundation; either          |
| version 2.1 of the License, or (at your option) any later version.    |
|                                                                       |
| SU2 is distributed in the hope that it will be useful,                |
| but WITHOUT ANY WARRANTY; without even the implied warranty of        |
| MERCHANTABILITY or FITNESS FOR A PARTICULAR PURPOSE. See the GNU      |
| Lesser General Public License for more details.                       |
|                                                                       |
| You should have received a copy of the GNU Lesser General Public      |
| License along with SU2. If not, see <http://www.gnu.org/licenses/>.   |
-------------------------------------------------------------------------


Problem definition:

Compressible Euler equations.
Mach number: 0.3.
Angle of attack (AoA): 2 deg, and angle of sideslip (AoS): 0 deg.
Dimensional simulation.
The reference area is 55.7983 m^2.
The reference length is 1.8008 m.


Problem definition:

Inviscid flow: Computing density based on free-stream
temperature and pressure using the ideal gas law.
Force coefficients computed using free-stream values.
-- Input conditions:
Fluid Model: STANDARD_AIR 
Specific gas constant: 287.058 N.m/kg.K.
Specific gas constant (non-dim): 287.058
Specific Heat Ratio: 1.4000 
Free-stream static pressure: 101325 Pa.
Free-stream total pressure: 107853 Pa.
Free-stream temperature: 288.15 K.
Free-stream total temperature: 293.337 K.
Free-stream density: 1.22498 kg/m^3.
Free-stream velocity: (102.027, 0, 3.56286) m/s. Magnitude: 102.089 m/s.
Free-stream total energy per unit mass: 212000 m^2/s^2.
-- Reference values:
Reference specific gas constant: 1 N.m/kg.K.
Reference pressure: 1 Pa.
Reference temperature: 1 K.
Reference density: 1 kg/m^3.
Reference velocity: 1 m/s.
Reference energy per unit mass: 1 m^2/s^2.
-- Resulting non-dimensional state:
Mach number (non-dim): 0.3
Specific gas constant (non-dim): 287.058
Free-stream temperature (non-dim): 288.15
Free-stream pressure (non-dim): 101325
Free-stream density (non-dim): 1.22498
Free-stream velocity (non-dim): (102.027, 0, 3.56286). Magnitude: 102.089
Free-stream total energy per unit mass (non-dim): 212000


Forces breakdown:

Center of Pressure: X=-0.016259Z+9.589350 m.

NOTE: Multiply forces by the non-dimensional factor: 356187.053093, and the reference factor: 1.000000
to obtain the dimensional force.

Total CL:       0.140281 | Pressure (   99%):    0.140281 | Friction (    0%):    0.000000 | Momentum (    0%):    0.000000
Total CD:       0.002616 | Pressure (   99%):    0.002616 | Friction (    0%):    0.000000 | Momentum (    0%):    0.000000
Total CSF:     -0.002161 | Pressure (  100%):   -0.002161 | Friction (    0%):    0.000000 | Momentum (    0%):    0.000000
Total CL/CD:   53.615998 | Pressure (  100%):   53.615998 | Friction (    0%):    0.000000 | Momentum (    0%):    0.000000
Total CMx:     -0.012140 | Pressure (  100%):   -0.012140 | Friction (    0%):    0.000000 | Momentum (    0%):    0.000000
Total CMy:      0.004927 | Pressure (   99%):    0.004927 | Friction (    0%):    0.000000 | Momentum (    0%):    0.000000
Total CMz:      0.006157 | Pressure (   99%):    0.006157 | Friction (    0%):    0.000000 | Momentum (    0%):    0.000000
Total CFx:     -0.002281 | Pressure (  100%):   -0.002281 | Friction (    0%):    0.000000 | Momentum (    0%):    0.000000
Total CFy:     -0.002161 | Pressure (  100%):   -0.002161 | Friction (    0%):    0.000000 | Momentum (    0%):    0.000000
Total CFz:      0.140287 | Pressure (   99%):    0.140287 | Friction (    0%):    0.000000 | Momentum (    0%):    0.000000


Surface name: VTP

Total CL    (    0%):    0.000129 | Pressure (   99%):    0.000129 | Friction (    0%):    0.000000 | Momentum (    0%):    0.000000
Total CD    (   16%):    0.000425 | Pressure (   99%):    0.000425 | Friction (    0%):    0.000000 | Momentum (    0%):    0.000000
Total CSF   (    0%):   -0.000018 | Pressure (  100%):   -0.000018 | Friction (    0%):    0.000000 | Momentum (    0%):    0.000000
Total CL/CD (    0%):    0.304352 | Pressure (   99%):    0.304352 | Friction (    0%):    0.000000 | Momentum (    0%):    0.000000
Total CMx   (    0%):   -0.000055 | Pressure (  100%):   -0.000055 | Friction (    0%):    0.000000 | Momentum (    0%):    0.000000
Total CMy   (    0%):   -0.000003 | Pressure (  100%):   -0.000003 | Friction (    0%):    0.000000 | Momentum (    0%):    0.000000
Total CMz   (    0%):    0.000049 | Pressure (   99%):    0.000049 | Friction (    0%):    0.000000 | Momentum (    0%):    0.000000
Total CFx   (  -18%):    0.000420 | Pressure (   99%):    0.000420 | Friction (    0%):    0.000000 | Momentum (    0%):    0.000000
Total CFy   (    0%):   -0.000018 | Pressure (  100%):   -0.000018 | Friction (    0%):    0.000000 | Momentum (    0%):    0.000000
Total CFz   (    0%):    0.000144 | Pressure (   99%):    0.000144 | Friction (    0%):    0.000000 | Momentum (    0%):    0.000000

Surface name: Fuselage

Total CL    (   22%):    0.030927 | Pressure (   99%):    0.030927 | Friction (    0%):    0.000000 | Momentum (    0%):    0.000000
Total CD    (   34%):    0.000903 | Pressure (   99%):    0.000903 | Friction (    0%):    0.000000 | Momentum (    0%):    0.000000
Total CSF   (  141%):   -0.003064 | Pressure (  100%):   -0.003064 | Friction (    0%):    0.000000 | Momentum (    0%):    0.000000
Total CL/CD (   63%):   34.254471 | Pressure (  100%):   34.254471 | Friction (    0%):    0.000000 | Momentum (    0%):    0.000000
Total CMx   (  -18%):    0.002300 | Pressure (   99%):    0.002300 | Friction (    0%):    0.000000 | Momentum (    0%):    0.000000
Total CMy   (   15%):    0.000770 | Pressure (   99%):    0.000770 | Friction (    0%):    0.000000 | Momentum (    0%):    0.000000
Total CMz   (   54%):    0.003378 | Pressure (   99%):    0.003378 | Friction (    0%):    0.000000 | Momentum (    0%):    0.000000
Total CFx   (    7%):   -0.000177 | Pressure (  100%):   -0.000177 | Friction (    0%):    0.000000 | Momentum (    0%):    0.000000
Total CFy   (  141%):   -0.003064 | Pressure (  100%):   -0.003064 | Friction (    0%):    0.000000 | Momentum (    0%):    0.000000
Total CFz   (   22%):    0.030939 | Pressure (   99%):    0.030939 | Friction (    0%):    0.000000 | Momentum (    0%):    0.000000

Surface name: HTP

Total CL    (  -16%):   -0.023137 | Pressure (  100%):   -0.023137 | Friction (    0%):    0.000000 | Momentum (    0%):    0.000000
Total CD    (  -37%):   -0.000977 | Pressure (  100%):   -0.000977 | Friction (    0%):    0.000000 | Momentum (    0%):    0.000000
Total CSF   (    0%):    0.000007 | Pressure (   99%):    0.000007 | Friction (    0%):    0.000000 | Momentum (    0%):    0.000000
Total CL/CD (   44%):   23.680952 | Pressure (  100%):   23.680952 | Friction (    0%):    0.000000 | Momentum (    0%):    0.000000
Total CMx   (    0%):    0.000035 | Pressure (   99%):    0.000035 | Friction (    0%):    0.000000 | Momentum (    0%):    0.000000
Total CMy   ( 1584%):    0.078093 | Pressure (   99%):    0.078093 | Friction (    0%):    0.000000 | Momentum (    0%):    0.000000
Total CMz   (    0%):    0.000032 | Pressure (   99%):    0.000032 | Friction (    0%):    0.000000 | Momentum (    0%):    0.000000
Total CFx   (    7%):   -0.000169 | Pressure (  100%):   -0.000169 | Friction (    0%):    0.000000 | Momentum (    0%):    0.000000
Total CFy   (    0%):    0.000007 | Pressure (   99%):    0.000007 | Friction (    0%):    0.000000 | Momentum (    0%):    0.000000
Total CFz   (  -16%):   -0.023157 | Pressure (  100%):   -0.023157 | Friction (    0%):    0.000000 | Momentum (    0%):    0.000000

Surface name: Wing

Total CL    (   94%):    0.132362 | Pressure (   99%):    0.132362 | Friction (    0%):    0.000000 | Momentum (    0%):    0.000000
Total CD    (   86%):    0.002266 | Pressure (   99%):    0.002266 | Friction (    0%):    0.000000 | Momentum (    0%):    0.000000
Total CSF   (  -42%):    0.000915 | Pressure (   99%):    0.000915 | Friction (    0%):    0.000000 | Momentum (    0%):    0.000000
Total CL/CD (  108%):   58.418856 | Pressure (  100%):   58.418856 | Friction (    0%):    0.000000 | Momentum (    0%):    0.000000
Total CMx   (  118%):   -0.014420 | Pressure (  100%):   -0.014420 | Friction (    0%):    0.000000 | Momentum (    0%):    0.000000
Total CMy   (-1500%):   -0.073933 | Pressure (  100%):   -0.073933 | Friction (    0%):    0.000000 | Momentum (    0%):    0.000000
Total CMz   (   43%):    0.002698 | Pressure (   99%):    0.002698 | Friction (    0%):    0.000000 | Momentum (    0%):    0.000000
Total CFx   (  103%):   -0.002355 | Pressure (  100%):   -0.002355 | Friction (    0%):    0.000000 | Momentum (    0%):    0.000000
Total CFy   (  -42%):    0.000915 | Pressure (   99%):    0.000915 | Friction (    0%):    0.000000 | Momentum (    0%):    0.000000
Total CFz   (   94%):    0.132361 | Pressure (   99%):    0.132361 | Friction (    0%):    0.000000 | Momentum (    0%):    0.000000

