
-------------------------------------------------------------------------
|    ___ _   _ ___                                                      |
|   / __| | | |_  )   Release 7.0.3 "Blackbird"                         |
|   \__ \ |_| |/ /                                                      |
|   |___/\___//___|   Suite (Computational Fluid Dynamics Code)         |
|                                                                       |
-------------------------------------------------------------------------
| SU2 Project Website: https://su2code.github.io                        |
|                                                                       |
| The SU2 Project is maintained by the SU2 Foundation                   |
| (http://su2foundation.org)                                            |
-------------------------------------------------------------------------
| Copyright 2012-2020, SU2 Contributors                                 |
|                                                                       |
| SU2 is free software; you can redistribute it and/or                  |
| modify it under the terms of the GNU Lesser General Public            |
| License as published by the Free Software Foundation; either          |
| version 2.1 of the License, or (at your option) any later version.    |
|                                                                       |
| SU2 is distributed in the hope that it will be useful,                |
| but WITHOUT ANY WARRANTY; without even the implied warranty of        |
| MERCHANTABILITY or FITNESS FOR A PARTICULAR PURPOSE. See the GNU      |
| Lesser General Public License for more details.                       |
|                                                                       |
| You should have received a copy of the GNU Lesser General Public      |
| License along with SU2. If not, see <http://www.gnu.org/licenses/>.   |
-------------------------------------------------------------------------

Parsing config file for zone 0

----------------- Physical Case Definition ( Zone 0 ) -------------------
Compressible Euler equations.
Mach number: 0.294.
Angle of attack (AoA): 10 deg, and angle of sideslip (AoS): 0 deg.
No restart solution, use the values at infinity (freestream).
Dimensional simulation.
The reference area is 10 m^2.
The semi-span will be computed using the max y(3D) value.
The reference length is 1 m.
Reference origin for moment evaluation is (0, 0, 0).
Surface(s) where the force coefficients are evaluated: Wing_1.

Surface(s) where the objective function is evaluated: airfoil.
Surface(s) plotted in the output file: Wing_1.
Surface(s) to be analyzed in detail: airfoil.
Surface(s) affected by the design variables: Wing_1.
Input mesh file name: deformed.su2

--------------- Space Numerical Integration ( Zone 0 ) ------------------
Roe (with entropy fix = 0) solver for the flow inviscid terms.
Roe with DDES's FD low-dissipation function.
Second order integration in space, with slope limiter.
Venkatakrishnan slope-limiting method, with constant: 0.05. 
The reference element size is: 1. 
Gradient for upwind reconstruction: Green-Gauss.
Gradient for viscous and source terms: Green-Gauss.

--------------- Time Numerical Integration  ( Zone 0 ) ------------------
Local time stepping (steady state simulation).
Euler implicit method for the flow equations.
FGMRES is used for solving the linear system.
Using a ILU(0) preconditioning.
Convergence criteria of the linear solver: 1e-06.
Max number of linear iterations: 5.
V Multigrid Cycle, with 3 multigrid levels.
Damping factor for the residual restriction: 0.75.
Damping factor for the correction prolongation: 0.75.
No CFL adaptation.
+-------------------------------------------+
|  MG Level| Presmooth|PostSmooth|CorrectSmo|
+-------------------------------------------+
|         0|         1|         0|         0|
|         1|         2|         0|         0|
|         2|         3|         0|         0|
|         3|         3|         0|         0|
+-------------------------------------------+
Courant-Friedrichs-Lewy number:        1

------------------ Convergence Criteria  ( Zone 0 ) ---------------------
Maximum number of solver subiterations: 1000.
Begin convergence monitoring at iteration 10.
Residual minimum value: 1e-8.
Cauchy series min. value: 1e-10.
Number of Cauchy elements: 100.
Begin windowed time average at iteration 15.

-------------------- Output Information ( Zone 0 ) ----------------------
Writing solution files every 10 iterations.
Writing the convergence history file every 1 inner iterations.
Writing the screen convergence history every 1 inner iterations.
The tabular file format is Tecplot (.dat).
Convergence history file name: history.
Forces breakdown file name: forces_breakdown.dat.
Surface file name: surface_flow.
Volume file name: flow.
Restart file name: solution_flow.dat.

------------- Config File Boundary Information ( Zone 0 ) ---------------
+-----------------------------------------------------------------------+
|                        Marker Type|                        Marker Name|
+-----------------------------------------------------------------------+
|                         Euler wall|                             Wing_1|
+-----------------------------------------------------------------------+
|                          Far-field|                           Farfield|
+-----------------------------------------------------------------------+
|                     Symmetry plane|                                  0|
+-----------------------------------------------------------------------+
|           Deformable mesh boundary|                            airfoil|
+-----------------------------------------------------------------------+

-------------------- Output Preprocessing ( Zone 0 ) --------------------
Screen output fields: INNER_ITER, TIME_ITER, RMS_DENSITY, RMS_MOMENTUM-X, RMS_MOMENTUM-Y, RMS_ENERGY, LIFT, DRAG
  Info: Ignoring the following history output groups:
  TIME_ITER
History output group(s): ITER, RMS_RES, AERO_COEFF
Warning: No (valid) fields chosen for convergence monitoring. Convergence monitoring inactive.
Warning: No (valid) fields chosen for time convergence monitoring. Time convergence monitoring inactive.
Volume output fields: COORDINATES, SOLUTION, PRIMITIVE

------------------- Geometry Preprocessing ( Zone 0 ) -------------------
Three dimensional problem.
142678 grid points before partitioning.
739205 volume elements before partitioning.
2 surface markers.
99234 boundary elements in index 0 (Marker = Wing_1).
1280 boundary elements in index 1 (Marker = Farfield).
Executing the partitioning functions.
Building the graph adjacency structure.
Calling ParMETIS... graph partitioning complete (18884 edge cuts).
Distributing ParMETIS coloring.
Rebalancing vertices.
Rebalancing volume element connectivity.
Rebalancing markers and surface elements.
153425 vertices including ghost points. 
767118 interior elements including halo cells. 
767118 tetrahedra.
Establishing MPI communication patterns.
Setting point connectivity.
Renumbering points (Reverse Cuthill McKee Ordering).
Recomputing point connectivity.
Setting element connectivity.
Checking the numerical grid orientation.
Identifying edges and vertices.
Computing centers of gravity.
Setting the control volume structure.
Volume of the computational grid: 587306.
Searching for the closest normal neighbors to the surfaces.
Storing a mapping from global to local point index.
Compute the surface curvature.
Max K: 955.692. Mean K: 12.8889. Standard deviation K: 55.0106.
Checking for periodicity.
Computing mesh quality statistics for the dual control volumes.
+--------------------------------------------------------------+
|           Mesh Quality Metric|        Minimum|        Maximum|
+--------------------------------------------------------------+
|    Orthogonality Angle (deg.)|        46.4986|        85.7745|
|     CV Face Area Aspect Ratio|        1.42346|        36.7986|
|           CV Sub-Volume Ratio|        1.02914|        142.752|
+--------------------------------------------------------------+
Setting the multigrid structure.
+-------------------------------------------+
|  MG Level|       CVs|Aggl. Rate|       CFL|
+-------------------------------------------+
|         0|    153425|    1/1.00|         1|
|         1|     27876|     1/5.5|  0.849577|
|         2|      6802|     1/4.1|  0.796335|
Finding max control volume width.
Communicating number of neighbors.
Semi-span length = 4.98965 m.
Wetted area = 42.1764 m^2.
Area projection in the x-plane = 3.07995 m^2, y-plane = 1.52635 m^2, z-plane = 20.0958 m^2.
Max. coordinate in the x-direction = 1.02239 m, y-direction = 4.98965 m, z-direction = 0.481722 m.
Min. coordinate in the x-direction = -1.02515 m, y-direction = -4.98902 m, z-direction = -0.118884 m.
Checking if Euler & Symmetry markers are straight/plane:
Boundary marker Wing_1 is NOT a single plane.
Boundary marker 0 is a single plane.

-------------------- Solver Preprocessing ( Zone 0 ) --------------------
Inviscid flow: Computing density based on free-stream
temperature and pressure using the ideal gas law.
Force coefficients computed using free-stream values.

-- Models:
+------------------------------------------------------------------------------+
|          Viscosity Model|        Conductivity Model|              Fluid Model|
+------------------------------------------------------------------------------+
|                        -|                         -|             STANDARD_AIR|
+------------------------------------------------------------------------------+
-- Fluid properties:
+------------------------------------------------------------------------------+
|                  Name|    Dim. value|    Ref. value|      Unit|Non-dim. value|
+------------------------------------------------------------------------------+
|          Gas Constant|       287.058|             1|  N.m/kg.K|       287.058|
|      Spec. Heat Ratio|             -|             -|         -|           1.4|
+------------------------------------------------------------------------------+
-- Initial and free-stream conditions:
+------------------------------------------------------------------------------+
|                  Name|    Dim. value|    Ref. value|      Unit|Non-dim. value|
+------------------------------------------------------------------------------+
|       Static Pressure|        101325|             1|        Pa|        101325|
|               Density|       1.22498|             1|    kg/m^3|       1.22498|
|           Temperature|        288.15|             1|         K|        288.15|
|          Total Energy|        211794|             1|   m^2/s^2|        211794|
|            Velocity-X|       98.5274|             1|       m/s|       98.5274|
|            Velocity-Y|             0|             1|       m/s|             0|
|            Velocity-Z|        17.373|             1|       m/s|        17.373|
|    Velocity Magnitude|       100.047|             1|       m/s|       100.047|
+------------------------------------------------------------------------------+
|           Mach Number|             -|             -|         -|         0.294|
+------------------------------------------------------------------------------+
Initialize Jacobian structure (Euler). MG level: 0.
Initialize Jacobian structure (Euler). MG level: 1.
Initialize Jacobian structure (Euler). MG level: 2.

------------------- Numerics Preprocessing ( Zone 0 ) -------------------

----------------- Integration Preprocessing ( Zone 0 ) ------------------

------------------- Iteration Preprocessing ( Zone 0 ) ------------------
Euler/Navier-Stokes/RANS fluid iteration.

------------------------------ Begin Solver -----------------------------

Simulation Run using the Single-zone Driver
+-------------------------------------------------------------------------------------------------------+
|  Inner_Iter|   Time_Iter|    rms[Rho]|   rms[RhoU]|   rms[RhoV]|   rms[RhoE]|          CL|          CD|
+-------------------------------------------------------------------------------------------------------+
|           0|           0|   -1.662618|    0.505450|   -0.350695|    3.806482|    2.097936|    0.943470|
|           1|           0|   -1.770840|    0.415004|   -0.135711|    3.698559|    3.653451|    1.628860|
|           2|           0|   -1.773763|    0.446141|    0.051894|    3.697397|    4.738656|    2.090990|
|           3|           0|   -1.719522|    0.531325|    0.168340|    3.752435|    5.437138|    2.368491|
|           4|           0|   -1.656738|    0.627182|    0.263826|    3.815594|    5.827513|    2.498127|
|           5|           0|   -1.598361|    0.723660|    0.355985|    3.874521|    5.980895|    2.514279|
|           6|           0|   -1.544696|    0.818440|    0.449131|    3.928963|    5.958197|    2.447283|
|           7|           0|   -1.494723|    0.909710|    0.542830|    3.979836|    5.810593|    2.322872|
|           8|           0|   -1.448213|    0.995945|    0.635603|    4.027259|    5.581010|    2.162667|
|           9|           0|   -1.405517|    1.075980|    0.725913|    4.070781|    5.304254|    1.984314|
|          10|           0|   -1.367418|    1.149201|    0.812556|    4.109559|    5.005443|    1.800911|
+-----------------------------------------------------------------------+
|        File Writing Summary       |              Filename             |
+-----------------------------------------------------------------------+
|SU2 restart                        |solution_flow.dat                  |
|Paraview                           |flow.vtu                           |
|Paraview surface                   |surface_flow.vtu                   |
+-----------------------------------------------------------------------+

Writing the forces breakdown file (forces_breakdown.dat).
+-------------------------------------------------------------------------------------------------------+
|  Inner_Iter|   Time_Iter|    rms[Rho]|   rms[RhoU]|   rms[RhoV]|   rms[RhoE]|          CL|          CD|
+-------------------------------------------------------------------------------------------------------+
|          11|           0|   -1.334364|    1.215445|    0.894556|    4.143080|    4.701210|    1.621174|
|          12|           0|   -1.306911|    1.274636|    0.971246|    4.170691|    4.402472|    1.450793|
|          13|           0|   -1.285325|    1.326896|    1.042094|    4.192010|    4.115456|    1.292842|
|          14|           0|   -1.269579|    1.372385|    1.106727|    4.206901|    3.842561|    1.148253|
|          15|           0|   -1.259517|    1.411274|    1.165015|    4.215331|    3.583538|    1.016533|
|          16|           0|   -1.254591|    1.443732|    1.216877|    4.217579|    3.336464|    0.896313|
|          17|           0|   -1.253714|    1.469887|    1.262329|    4.214465|    3.098594|    0.785780|
|          18|           0|   -1.255108|    1.489953|    1.301381|    4.207607|    2.866938|    0.683023|
|          19|           0|   -1.256269|    1.504070|    1.334015|    4.199629|    2.638762|    0.586257|
|          20|           0|   -1.254364|    1.512495|    1.360414|    4.194061|    2.411874|    0.493996|
+-----------------------------------------------------------------------+
|        File Writing Summary       |              Filename             |
+-----------------------------------------------------------------------+
|SU2 restart                        |solution_flow.dat                  |
|Paraview                           |flow.vtu                           |
|Paraview surface                   |surface_flow.vtu                   |
+-----------------------------------------------------------------------+

Writing the forces breakdown file (forces_breakdown.dat).
+-------------------------------------------------------------------------------------------------------+
|  Inner_Iter|   Time_Iter|    rms[Rho]|   rms[RhoU]|   rms[RhoV]|   rms[RhoE]|          CL|          CD|
+-------------------------------------------------------------------------------------------------------+
|          21|           0|   -1.246812|    1.515444|    1.380663|    4.194856|    2.184793|    0.405107|
|          22|           0|   -1.231949|    1.513372|    1.394985|    4.205350|    1.956912|    0.318870|
|          23|           0|   -1.210437|    1.507055|    1.403548|    4.225837|    1.728411|    0.234951|
|          24|           0|   -1.184643|    1.496712|    1.406792|    4.253574|    1.500252|    0.153375|
|          25|           0|   -1.157502|    1.483217|    1.405098|    4.284610|    1.273980|    0.074451|
|          26|           0|   -1.131731|    1.467679|    1.398881|    4.315152|    1.051613|   -0.001303|
|          27|           0|   -1.109334|    1.451192|    1.388593|    4.342356|    0.835448|   -0.073249|
|          28|           0|   -1.091574|    1.434574|    1.375179|    4.364482|    0.627884|   -0.140700|
|          29|           0|   -1.078758|    1.418422|    1.359086|    4.381024|    0.431305|   -0.202965|
|          30|           0|   -1.071056|    1.403190|    1.340978|    4.391616|    0.247938|   -0.259413|
+-----------------------------------------------------------------------+
|        File Writing Summary       |              Filename             |
+-----------------------------------------------------------------------+
|SU2 restart                        |solution_flow.dat                  |
|Paraview                           |flow.vtu                           |
|Paraview surface                   |surface_flow.vtu                   |
+-----------------------------------------------------------------------+

Writing the forces breakdown file (forces_breakdown.dat).
+-------------------------------------------------------------------------------------------------------+
|  Inner_Iter|   Time_Iter|    rms[Rho]|   rms[RhoU]|   rms[RhoV]|   rms[RhoE]|          CL|          CD|
+-------------------------------------------------------------------------------------------------------+
|          31|           0|   -1.067522|    1.389159|    1.321196|    4.397113|    0.079828|   -0.309490|
|          32|           0|   -1.067105|    1.377305|    1.300594|    4.398472|   -0.071228|   -0.352750|
|          33|           0|   -1.068385|    1.368875|    1.279703|    4.397134|   -0.203705|   -0.388862|
|          34|           0|   -1.068845|    1.364341|    1.259590|    4.395511|   -0.316367|   -0.417603|
|          35|           0|   -1.066686|    1.364515|    1.241390|    4.395682|   -0.408264|   -0.438855|
|          36|           0|   -1.061435|    1.370415|    1.228466|    4.398607|   -0.478716|   -0.452600|
|          37|           0|   -1.052787|    1.383436|    1.223724|    4.405088|   -0.527305|   -0.458906|
|          38|           0|   -1.041959|    1.403533|    1.231129|    4.414080|   -0.553846|   -0.457904|
|          39|           0|   -1.030241|    1.429180|    1.251663|    4.424636|   -0.558352|   -0.449786|
|          40|           0|   -1.019633|    1.456864|    1.283164|    4.434514|   -0.541050|   -0.434797|
+-----------------------------------------------------------------------+
|        File Writing Summary       |              Filename             |
+-----------------------------------------------------------------------+
|SU2 restart                        |solution_flow.dat                  |
|Paraview                           |flow.vtu                           |
|Paraview surface                   |surface_flow.vtu                   |
+-----------------------------------------------------------------------+

Writing the forces breakdown file (forces_breakdown.dat).
+-------------------------------------------------------------------------------------------------------+
|  Inner_Iter|   Time_Iter|    rms[Rho]|   rms[RhoU]|   rms[RhoV]|   rms[RhoE]|          CL|          CD|
+-------------------------------------------------------------------------------------------------------+
|          41|           0|   -1.012294|    1.484214|    1.322427|    4.441276|   -0.502396|   -0.413235|
|          42|           0|   -1.009291|    1.510302|    1.364843|    4.443682|   -0.443040|   -0.385437|
|          43|           0|   -1.010740|    1.533118|    1.405923|    4.441184|   -0.363830|   -0.351789|
|          44|           0|   -1.016538|    1.551116|    1.443053|    4.433715|   -0.265828|   -0.312725|
|          45|           0|   -1.026625|    1.564000|    1.474498|    4.421291|   -0.150282|   -0.268725|
|          46|           0|   -1.037632|    1.570761|    1.499112|    4.407116|   -0.018661|   -0.220314|
|          47|           0|   -1.048698|    1.571873|    1.516711|    4.392518|    0.127341|   -0.168078|
|          48|           0|   -1.057282|    1.566772|    1.527459|    4.380478|    0.285859|   -0.112644|
|          49|           0|   -1.060351|    1.555724|    1.531460|    4.375035|    0.454879|   -0.054677|
|          50|           0|   -1.057292|    1.537954|    1.528477|    4.377252|    0.632227|    0.005112|
+-----------------------------------------------------------------------+
|        File Writing Summary       |              Filename             |
+-----------------------------------------------------------------------+
|SU2 restart                        |solution_flow.dat                  |
|Paraview                           |flow.vtu                           |
|Paraview surface                   |surface_flow.vtu                   |
+-----------------------------------------------------------------------+

Writing the forces breakdown file (forces_breakdown.dat).
+-------------------------------------------------------------------------------------------------------+
|  Inner_Iter|   Time_Iter|    rms[Rho]|   rms[RhoU]|   rms[RhoV]|   rms[RhoE]|          CL|          CD|
+-------------------------------------------------------------------------------------------------------+
|          51|           0|   -1.049211|    1.514188|    1.519210|    4.386490|    0.815620|    0.065980|
|          52|           0|   -1.037218|    1.484948|    1.503648|    4.401509|    1.002711|    0.127165|
|          53|           0|   -1.023899|    1.452395|    1.483262|    4.418904|    1.191112|    0.187896|
|          54|           0|   -1.011724|    1.419418|    1.459548|    4.435606|    1.378389|    0.247396|
|          55|           0|   -1.002396|    1.389419|    1.434272|    4.449330|    1.562157|    0.304902|
|          56|           0|   -0.996779|    1.365965|    1.410424|    4.458942|    1.740086|    0.359678|
|          57|           0|   -0.994967|    1.353972|    1.391678|    4.464197|    1.909971|    0.411031|
|          58|           0|   -0.998591|    1.353286|    1.382080|    4.463128|    2.069747|    0.458322|
|          59|           0|   -1.006423|    1.363241|    1.383738|    4.456997|    2.217517|    0.500978|
|          60|           0|   -1.018129|    1.380165|    1.395400|    4.445911|    2.351588|    0.538501|
+-----------------------------------------------------------------------+
|        File Writing Summary       |              Filename             |
+-----------------------------------------------------------------------+
|SU2 restart                        |solution_flow.dat                  |
|Paraview                           |flow.vtu                           |
|Paraview surface                   |surface_flow.vtu                   |
+-----------------------------------------------------------------------+

Writing the forces breakdown file (forces_breakdown.dat).
+-------------------------------------------------------------------------------------------------------+
|  Inner_Iter|   Time_Iter|    rms[Rho]|   rms[RhoU]|   rms[RhoV]|   rms[RhoE]|          CL|          CD|
+-------------------------------------------------------------------------------------------------------+
|          61|           0|   -1.032891|    1.400945|    1.414129|    4.430417|    2.470526|    0.570483|
|          62|           0|   -1.049160|    1.422513|    1.436519|    4.411725|    2.573160|    0.596611|
|          63|           0|   -1.065512|    1.442427|    1.459308|    4.391093|    2.658604|    0.616672|
|          64|           0|   -1.080836|    1.460281|    1.480513|    4.369694|    2.726262|    0.630555|
|          65|           0|   -1.095224|    1.474805|    1.498579|    4.347645|    2.775836|    0.638252|
|          66|           0|   -1.106594|    1.485074|    1.512848|    4.327755|    2.807313|    0.639856|
|          67|           0|   -1.114103|    1.490871|    1.522949|    4.311670|    2.820977|    0.635551|
|          68|           0|   -1.118845|    1.492838|    1.528866|    4.299347|    2.817370|    0.625615|
|          69|           0|   -1.121654|    1.491163|    1.530419|    4.290941|    2.797287|    0.610406|
|          70|           0|   -1.123535|    1.485410|    1.527534|    4.285854|    2.761757|    0.590358|
+-----------------------------------------------------------------------+
|        File Writing Summary       |              Filename             |
+-----------------------------------------------------------------------+
|SU2 restart                        |solution_flow.dat                  |
|Paraview                           |flow.vtu                           |
|Paraview surface                   |surface_flow.vtu                   |
+-----------------------------------------------------------------------+

Writing the forces breakdown file (forces_breakdown.dat).
+-------------------------------------------------------------------------------------------------------+
|  Inner_Iter|   Time_Iter|    rms[Rho]|   rms[RhoU]|   rms[RhoV]|   rms[RhoE]|          CL|          CD|
+-------------------------------------------------------------------------------------------------------+
|          71|           0|   -1.124562|    1.475453|    1.520407|    4.284479|    2.711997|    0.565963|
|          72|           0|   -1.125946|    1.461888|    1.509152|    4.284906|    2.649398|    0.537768|
|          73|           0|   -1.127300|    1.444437|    1.493996|    4.287389|    2.575481|    0.506358|
|          74|           0|   -1.128962|    1.423056|    1.475516|    4.290948|    2.491857|    0.472339|
|          75|           0|   -1.131562|    1.397721|    1.453954|    4.294283|    2.400221|    0.436332|
|          76|           0|   -1.135440|    1.369052|    1.429898|    4.296562|    2.302303|    0.398959|
|          77|           0|   -1.140881|    1.337567|    1.403840|    4.297076|    2.199843|    0.360834|
|          78|           0|   -1.147994|    1.305033|    1.377606|    4.295357|    2.094556|    0.322545|
|          79|           0|   -1.157516|    1.272638|    1.352683|    4.290552|    1.988089|    0.284651|
|          80|           0|   -1.168644|    1.242649|    1.330223|    4.283455|    1.882000|    0.247667|
+-----------------------------------------------------------------------+
|        File Writing Summary       |              Filename             |
+-----------------------------------------------------------------------+
|SU2 restart                        |solution_flow.dat                  |
|Paraview                           |flow.vtu                           |
|Paraview surface                   |surface_flow.vtu                   |
+-----------------------------------------------------------------------+

Writing the forces breakdown file (forces_breakdown.dat).
+-------------------------------------------------------------------------------------------------------+
|  Inner_Iter|   Time_Iter|    rms[Rho]|   rms[RhoU]|   rms[RhoV]|   rms[RhoE]|          CL|          CD|
+-------------------------------------------------------------------------------------------------------+
|          81|           0|   -1.181709|    1.217896|    1.311410|    4.273639|    1.777749|    0.212063|
|          82|           0|   -1.196316|    1.199611|    1.297234|    4.261233|    1.676688|    0.178259|
|          83|           0|   -1.211587|    1.189682|    1.288141|    4.247152|    1.580048|    0.146624|
|          84|           0|   -1.227442|    1.188917|    1.283710|    4.231471|    1.488912|    0.117468|
|          85|           0|   -1.243966|    1.196090|    1.282907|    4.213995|    1.404214|    0.091040|
|          86|           0|   -1.260735|    1.209314|    1.284475|    4.195126|    1.326743|    0.067533|
|          87|           0|   -1.277927|    1.225503|    1.287254|    4.174671|    1.257128|    0.047082|
|          88|           0|   -1.295088|    1.241947|    1.290378|    4.153072|    1.195857|    0.029764|
|          89|           0|   -1.311409|    1.258506|    1.293048|    4.131424|    1.143274|    0.015609|
|          90|           0|   -1.326479|    1.273344|    1.294856|    4.110513|    1.099593|    0.004597|
+-----------------------------------------------------------------------+
|        File Writing Summary       |              Filename             |
+-----------------------------------------------------------------------+
|SU2 restart                        |solution_flow.dat                  |
|Paraview                           |flow.vtu                           |
|Paraview surface                   |surface_flow.vtu                   |
+-----------------------------------------------------------------------+

Writing the forces breakdown file (forces_breakdown.dat).
+-------------------------------------------------------------------------------------------------------+
|  Inner_Iter|   Time_Iter|    rms[Rho]|   rms[RhoU]|   rms[RhoV]|   rms[RhoE]|          CL|          CD|
+-------------------------------------------------------------------------------------------------------+
|          91|           0|   -1.339984|    1.285868|    1.295308|    4.090814|    1.064909|   -0.003332|
|          92|           0|   -1.351655|    1.295568|    1.294266|    4.072830|    1.039202|   -0.008276|
|          93|           0|   -1.361475|    1.302708|    1.291728|    4.057053|    1.022348|   -0.010361|
|          94|           0|   -1.369683|    1.307681|    1.287755|    4.043691|    1.014117|   -0.009747|
|          95|           0|   -1.376874|    1.309891|    1.282505|    4.032278|    1.014197|   -0.006618|
|          96|           0|   -1.384069|    1.309339|    1.275938|    4.021875|    1.022185|   -0.001180|
|          97|           0|   -1.391661|    1.306934|    1.268052|    4.012153|    1.037644|    0.006356|
|          98|           0|   -1.399841|    1.302693|    1.259221|    4.002797|    1.060058|    0.015766|
|          99|           0|   -1.408791|    1.296272|    1.249081|    3.993600|    1.088890|    0.026819|
|         100|           0|   -1.418749|    1.288023|    1.237775|    3.984334|    1.123588|    0.039292|
+-----------------------------------------------------------------------+
|        File Writing Summary       |              Filename             |
+-----------------------------------------------------------------------+
|SU2 restart                        |solution_flow.dat                  |
|Paraview                           |flow.vtu                           |
|Paraview surface                   |surface_flow.vtu                   |
+-----------------------------------------------------------------------+

Writing the forces breakdown file (forces_breakdown.dat).
+-------------------------------------------------------------------------------------------------------+
|  Inner_Iter|   Time_Iter|    rms[Rho]|   rms[RhoU]|   rms[RhoV]|   rms[RhoE]|          CL|          CD|
+-------------------------------------------------------------------------------------------------------+
|         101|           0|   -1.429498|    1.277778|    1.225492|    3.975244|    1.163527|    0.052950|
|         102|           0|   -1.440237|    1.265379|    1.212469|    3.967281|    1.208079|    0.067565|
|         103|           0|   -1.451021|    1.251201|    1.199041|    3.960234|    1.256583|    0.082912|
|         104|           0|   -1.462438|    1.235789|    1.185240|    3.953212|    1.308369|    0.098769|
|         105|           0|   -1.473725|    1.218447|    1.171094|    3.946943|    1.362767|    0.114925|
|         106|           0|   -1.484924|    1.199248|    1.156730|    3.941272|    1.419095|    0.131175|
|         107|           0|   -1.496016|    1.179099|    1.142223|    3.935889|    1.476695|    0.147330|
|         108|           0|   -1.507180|    1.158647|    1.127787|    3.930482|    1.534900|    0.163208|
|         109|           0|   -1.518235|    1.138476|    1.113501|    3.925086|    1.593069|    0.178640|
|         110|           0|   -1.529377|    1.119305|    1.099640|    3.919207|    1.650592|    0.193472|
+-----------------------------------------------------------------------+
|        File Writing Summary       |              Filename             |
+-----------------------------------------------------------------------+
|SU2 restart                        |solution_flow.dat                  |
|Paraview                           |flow.vtu                           |
|Paraview surface                   |surface_flow.vtu                   |
+-----------------------------------------------------------------------+

Writing the forces breakdown file (forces_breakdown.dat).
+-------------------------------------------------------------------------------------------------------+
|  Inner_Iter|   Time_Iter|    rms[Rho]|   rms[RhoU]|   rms[RhoV]|   rms[RhoE]|          CL|          CD|
+-------------------------------------------------------------------------------------------------------+
|         111|           0|   -1.540379|    1.101904|    1.086554|    3.912828|    1.706875|    0.207565|
|         112|           0|   -1.551576|    1.086798|    1.074800|    3.905490|    1.761356|    0.220792|
|         113|           0|   -1.562041|    1.074804|    1.064776|    3.898052|    1.813504|    0.233044|
|         114|           0|   -1.571497|    1.066394|    1.056770|    3.890643|    1.862823|    0.244221|
|         115|           0|   -1.580191|    1.061966|    1.051104|    3.882885|    1.908867|    0.254245|
|         116|           0|   -1.588100|    1.061393|    1.047798|    3.874787|    1.951233|    0.263050|
|         117|           0|   -1.595013|    1.064133|    1.046679|    3.866527|    1.989582|    0.270591|
|         118|           0|   -1.601239|    1.069976|    1.047622|    3.857813|    2.023612|    0.276833|
|         119|           0|   -1.606717|    1.078337|    1.050222|    3.848878|    2.053068|    0.281755|
|         120|           0|   -1.611937|    1.088219|    1.054047|    3.839337|    2.077766|    0.285352|
+-----------------------------------------------------------------------+
|        File Writing Summary       |              Filename             |
+-----------------------------------------------------------------------+
|SU2 restart                        |solution_flow.dat                  |
|Paraview                           |flow.vtu                           |
|Paraview surface                   |surface_flow.vtu                   |
+-----------------------------------------------------------------------+

Writing the forces breakdown file (forces_breakdown.dat).
+-------------------------------------------------------------------------------------------------------+
|  Inner_Iter|   Time_Iter|    rms[Rho]|   rms[RhoU]|   rms[RhoV]|   rms[RhoE]|          CL|          CD|
+-------------------------------------------------------------------------------------------------------+
|         121|           0|   -1.616600|    1.098472|    1.058640|    3.829557|    2.097565|    0.287631|
|         122|           0|   -1.621673|    1.108512|    1.063526|    3.818830|    2.112377|    0.288613|
|         123|           0|   -1.626939|    1.117999|    1.068296|    3.807608|    2.122167|    0.288326|
|         124|           0|   -1.632372|    1.126569|    1.072495|    3.796224|    2.126959|    0.286817|
|         125|           0|   -1.638259|    1.133919|    1.075666|    3.784673|    2.126830|    0.284139|
|         126|           0|   -1.643714|    1.138315|    1.077502|    3.773668|    2.121920|    0.280360|
|         127|           0|   -1.648849|    1.140402|    1.077625|    3.763558|    2.112449|    0.275568|
|         128|           0|   -1.653245|    1.140143|    1.075646|    3.755245|    2.098655|    0.269851|
|         129|           0|   -1.656624|    1.137644|    1.071310|    3.749425|    2.080825|    0.263306|
|         130|           0|   -1.658980|    1.132601|    1.064259|    3.746314|    2.059300|    0.256041|
+-----------------------------------------------------------------------+
|        File Writing Summary       |              Filename             |
+-----------------------------------------------------------------------+
|SU2 restart                        |solution_flow.dat                  |
|Paraview                           |flow.vtu                           |
|Paraview surface                   |surface_flow.vtu                   |
+-----------------------------------------------------------------------+

Writing the forces breakdown file (forces_breakdown.dat).
+-------------------------------------------------------------------------------------------------------+
|  Inner_Iter|   Time_Iter|    rms[Rho]|   rms[RhoU]|   rms[RhoV]|   rms[RhoE]|          CL|          CD|
+-------------------------------------------------------------------------------------------------------+
|         131|           0|   -1.660040|    1.124910|    1.054412|    3.746249|    2.034457|    0.248166|
|         132|           0|   -1.660133|    1.114736|    1.041653|    3.748774|    2.006695|    0.239797|
|         133|           0|   -1.659334|    1.102179|    1.025728|    3.753626|    1.976443|    0.231052|
|         134|           0|   -1.658141|    1.087326|    1.006604|    3.759875|    1.944142|    0.222053|
|         135|           0|   -1.656407|    1.071334|    0.984495|    3.767675|    1.910253|    0.212918|
|         136|           0|   -1.655137|    1.052866|    0.958802|    3.775074|    1.875236|    0.203765|
|         137|           0|   -1.654212|    1.032671|    0.930025|    3.782307|    1.839566|    0.194710|
|         138|           0|   -1.653738|    1.011391|    0.898488|    3.788993|    1.803709|    0.185862|
|         139|           0|   -1.653637|    0.990066|    0.864854|    3.795060|    1.768136|    0.177328|
|         140|           0|   -1.654762|    0.969547|    0.830248|    3.799375|    1.733290|    0.169204|
+-----------------------------------------------------------------------+
|        File Writing Summary       |              Filename             |
+-----------------------------------------------------------------------+
|SU2 restart                        |solution_flow.dat                  |
|Paraview                           |flow.vtu                           |
|Paraview surface                   |surface_flow.vtu                   |
+-----------------------------------------------------------------------+

Writing the forces breakdown file (forces_breakdown.dat).
+-------------------------------------------------------------------------------------------------------+
|  Inner_Iter|   Time_Iter|    rms[Rho]|   rms[RhoU]|   rms[RhoV]|   rms[RhoE]|          CL|          CD|
+-------------------------------------------------------------------------------------------------------+
|         141|           0|   -1.657265|    0.951014|    0.796444|    3.801497|    1.699594|    0.161576|
|         142|           0|   -1.660993|    0.936053|    0.765907|    3.801583|    1.667440|    0.154522|
|         143|           0|   -1.665790|    0.925447|    0.741713|    3.799797|    1.637203|    0.148114|
|         144|           0|   -1.672047|    0.919904|    0.726777|    3.795682|    1.609212|    0.142405|
|         145|           0|   -1.679262|    0.919325|    0.722730|    3.789678|    1.583782|    0.137448|
|         146|           0|   -1.687499|    0.922712|    0.729208|    3.781398|    1.561171|    0.133277|
|         147|           0|   -1.696434|    0.929738|    0.744099|    3.771297|    1.541614|    0.129918|
|         148|           0|   -1.705763|    0.939203|    0.764289|    3.759566|    1.525295|    0.127384|
|         149|           0|   -1.715094|    0.949983|    0.787070|    3.746430|    1.512339|    0.125670|
|         150|           0|   -1.724167|    0.960827|    0.810242|    3.732058|    1.502811|    0.124757|
+-----------------------------------------------------------------------+
|        File Writing Summary       |              Filename             |
+-----------------------------------------------------------------------+
|SU2 restart                        |solution_flow.dat                  |
|Paraview                           |flow.vtu                           |
|Paraview surface                   |surface_flow.vtu                   |
+-----------------------------------------------------------------------+

Writing the forces breakdown file (forces_breakdown.dat).
+-------------------------------------------------------------------------------------------------------+
|  Inner_Iter|   Time_Iter|    rms[Rho]|   rms[RhoU]|   rms[RhoV]|   rms[RhoE]|          CL|          CD|
+-------------------------------------------------------------------------------------------------------+
|         151|           0|   -1.732357|    0.971368|    0.832304|    3.717190|    1.496748|    0.124621|
|         152|           0|   -1.739174|    0.980945|    0.852155|    3.702507|    1.494143|    0.125227|
|         153|           0|   -1.743966|    0.989282|    0.869398|    3.689097|    1.494925|    0.126529|
|         154|           0|   -1.746968|    0.995852|    0.883620|    3.677217|    1.499012|    0.128475|
|         155|           0|   -1.748168|    1.000256|    0.894699|    3.667515|    1.506273|    0.131009|
|         156|           0|   -1.747756|    1.002602|    0.902522|    3.660486|    1.516542|    0.134067|
|         157|           0|   -1.746007|    1.002870|    0.907175|    3.656344|    1.529618|    0.137582|
|         158|           0|   -1.743887|    1.000569|    0.908770|    3.654190|    1.545272|    0.141481|
|         159|           0|   -1.741624|    0.995830|    0.907386|    3.654065|    1.563248|    0.145691|
|         160|           0|   -1.739183|    0.988858|    0.903060|    3.656077|    1.583280|    0.150137|
+-----------------------------------------------------------------------+
|        File Writing Summary       |              Filename             |
+-----------------------------------------------------------------------+
|SU2 restart                        |solution_flow.dat                  |
|Paraview                           |flow.vtu                           |
|Paraview surface                   |surface_flow.vtu                   |
+-----------------------------------------------------------------------+

Writing the forces breakdown file (forces_breakdown.dat).
+-------------------------------------------------------------------------------------------------------+
|  Inner_Iter|   Time_Iter|    rms[Rho]|   rms[RhoU]|   rms[RhoV]|   rms[RhoE]|          CL|          CD|
+-------------------------------------------------------------------------------------------------------+
|         161|           0|   -1.737120|    0.979600|    0.895726|    3.659365|    1.605077|    0.154744|
|         162|           0|   -1.735920|    0.968295|    0.885385|    3.663081|    1.628338|    0.159439|
|         163|           0|   -1.735413|    0.954844|    0.872243|    3.667235|    1.652748|    0.164148|
|         164|           0|   -1.735804|    0.939024|    0.856770|    3.671393|    1.677991|    0.168805|
|         165|           0|   -1.737566|    0.921189|    0.838759|    3.674773|    1.703741|    0.173343|
|         166|           0|   -1.740688|    0.901420|    0.818309|    3.677153|    1.729679|    0.177702|
|         167|           0|   -1.745004|    0.880101|    0.795574|    3.678508|    1.755489|    0.181822|
|         168|           0|   -1.750387|    0.857571|    0.770848|    3.678911|    1.780864|    0.185651|
|         169|           0|   -1.756670|    0.834574|    0.744749|    3.678414|    1.805502|    0.189142|
|         170|           0|   -1.763670|    0.811746|    0.718121|    3.677003|    1.829133|    0.192257|
+-----------------------------------------------------------------------+
|        File Writing Summary       |              Filename             |
+-----------------------------------------------------------------------+
|SU2 restart                        |solution_flow.dat                  |
|Paraview                           |flow.vtu                           |
|Paraview surface                   |surface_flow.vtu                   |
+-----------------------------------------------------------------------+

Writing the forces breakdown file (forces_breakdown.dat).
+-------------------------------------------------------------------------------------------------------+
|  Inner_Iter|   Time_Iter|    rms[Rho]|   rms[RhoU]|   rms[RhoV]|   rms[RhoE]|          CL|          CD|
+-------------------------------------------------------------------------------------------------------+
|         171|           0|   -1.771237|    0.789782|    0.692057|    3.674695|    1.851502|    0.194967|
|         172|           0|   -1.779123|    0.769894|    0.667802|    3.671597|    1.872387|    0.197249|
|         173|           0|   -1.787111|    0.753610|    0.646881|    3.667735|    1.891558|    0.199077|
|         174|           0|   -1.795199|    0.741981|    0.630942|    3.662922|    1.908820|    0.200439|
|         175|           0|   -1.803532|    0.735793|    0.621311|    3.656859|    1.924005|    0.201325|
|         176|           0|   -1.812031|    0.735106|    0.618578|    3.649436|    1.936969|    0.201734|
|         177|           0|   -1.820279|    0.739466|    0.622579|    3.641051|    1.947591|    0.201666|
|         178|           0|   -1.827986|    0.748104|    0.632181|    3.631976|    1.955802|    0.201137|
|         179|           0|   -1.835328|    0.759632|    0.645784|    3.621959|    1.961559|    0.200165|
|         180|           0|   -1.841777|    0.773137|    0.661801|    3.611648|    1.964851|    0.198773|
+-----------------------------------------------------------------------+
|        File Writing Summary       |              Filename             |
+-----------------------------------------------------------------------+
|SU2 restart                        |solution_flow.dat                  |
|Paraview                           |flow.vtu                           |
|Paraview surface                   |surface_flow.vtu                   |
+-----------------------------------------------------------------------+

Writing the forces breakdown file (forces_breakdown.dat).
+-------------------------------------------------------------------------------------------------------+
|  Inner_Iter|   Time_Iter|    rms[Rho]|   rms[RhoU]|   rms[RhoV]|   rms[RhoE]|          CL|          CD|
+-------------------------------------------------------------------------------------------------------+
|         181|           0|   -1.847678|    0.786888|    0.678802|    3.600723|    1.965709|    0.196994|
|         182|           0|   -1.852977|    0.800482|    0.695581|    3.589487|    1.964176|    0.194860|
|         183|           0|   -1.857750|    0.812990|    0.711326|    3.577978|    1.960341|    0.192412|
|         184|           0|   -1.862716|    0.823743|    0.725472|    3.565616|    1.954304|    0.189689|
|         185|           0|   -1.867185|    0.832776|    0.737387|    3.553582|    1.946194|    0.186735|
|         186|           0|   -1.870777|    0.839560|    0.746891|    3.542614|    1.936171|    0.183596|
|         187|           0|   -1.873526|    0.844028|    0.753741|    3.533245|    1.924414|    0.180322|
|         188|           0|   -1.875626|    0.846038|    0.757893|    3.525653|    1.911115|    0.176961|
|         189|           0|   -1.877210|    0.845270|    0.759145|    3.519930|    1.896476|    0.173560|
|         190|           0|   -1.878243|    0.841745|    0.757552|    3.516396|    1.880721|    0.170168|
+-----------------------------------------------------------------------+
|        File Writing Summary       |              Filename             |
+-----------------------------------------------------------------------+
|SU2 restart                        |solution_flow.dat                  |
|Paraview                           |flow.vtu                           |
|Paraview surface                   |surface_flow.vtu                   |
+-----------------------------------------------------------------------+

Writing the forces breakdown file (forces_breakdown.dat).
+-------------------------------------------------------------------------------------------------------+
|  Inner_Iter|   Time_Iter|    rms[Rho]|   rms[RhoU]|   rms[RhoV]|   rms[RhoE]|          CL|          CD|
+-------------------------------------------------------------------------------------------------------+
|         191|           0|   -1.879046|    0.835343|    0.753007|    3.514748|    1.864080|    0.166832|
|         192|           0|   -1.879919|    0.826358|    0.745586|    3.514714|    1.846776|    0.163596|
|         193|           0|   -1.880907|    0.814625|    0.734966|    3.516008|    1.829060|    0.160507|
|         194|           0|   -1.882235|    0.800067|    0.721386|    3.518210|    1.811154|    0.157601|
|         195|           0|   -1.884142|    0.782620|    0.704810|    3.520793|    1.793292|    0.154917|
|         196|           0|   -1.886809|    0.762324|    0.685340|    3.523348|    1.775699|    0.152487|
|         197|           0|   -1.889745|    0.739307|    0.663121|    3.526272|    1.758580|    0.150337|
|         198|           0|   -1.893287|    0.713954|    0.638309|    3.528918|    1.742132|    0.148487|
|         199|           0|   -1.897473|    0.686595|    0.611374|    3.531026|    1.726542|    0.146953|
|         200|           0|   -1.902482|    0.657643|    0.582962|    3.532098|    1.711974|    0.145748|
+-----------------------------------------------------------------------+
|        File Writing Summary       |              Filename             |
+-----------------------------------------------------------------------+
|SU2 restart                        |solution_flow.dat                  |
|Paraview                           |flow.vtu                           |
|Paraview surface                   |surface_flow.vtu                   |
+-----------------------------------------------------------------------+

Writing the forces breakdown file (forces_breakdown.dat).
+-------------------------------------------------------------------------------------------------------+
|  Inner_Iter|   Time_Iter|    rms[Rho]|   rms[RhoU]|   rms[RhoV]|   rms[RhoE]|          CL|          CD|
+-------------------------------------------------------------------------------------------------------+
|         201|           0|   -1.908162|    0.627868|    0.554146|    3.532170|    1.698576|    0.144877|
|         202|           0|   -1.914428|    0.598307|    0.526389|    3.531135|    1.686490|    0.144348|
|         203|           0|   -1.921242|    0.571066|    0.501392|    3.528954|    1.675839|    0.144158|
|         204|           0|   -1.928881|    0.548035|    0.481257|    3.525175|    1.666733|    0.144306|
|         205|           0|   -1.937108|    0.531113|    0.467956|    3.519935|    1.659252|    0.144782|
|         206|           0|   -1.945769|    0.521651|    0.462813|    3.513312|    1.653470|    0.145575|
|         207|           0|   -1.954405|    0.520012|    0.465907|    3.505638|    1.649427|    0.146668|
|         208|           0|   -1.962939|    0.525659|    0.475993|    3.496869|    1.647147|    0.148043|
|         209|           0|   -1.971510|    0.536962|    0.491134|    3.486753|    1.646630|    0.149676|
|         210|           0|   -1.979834|    0.552214|    0.509273|    3.475593|    1.647861|    0.151542|
+-----------------------------------------------------------------------+
|        File Writing Summary       |              Filename             |
+-----------------------------------------------------------------------+
|SU2 restart                        |solution_flow.dat                  |
|Paraview                           |flow.vtu                           |
|Paraview surface                   |surface_flow.vtu                   |
+-----------------------------------------------------------------------+

Writing the forces breakdown file (forces_breakdown.dat).
+-------------------------------------------------------------------------------------------------------+
|  Inner_Iter|   Time_Iter|    rms[Rho]|   rms[RhoU]|   rms[RhoV]|   rms[RhoE]|          CL|          CD|
+-------------------------------------------------------------------------------------------------------+
|         211|           0|   -1.987716|    0.569392|    0.528470|    3.463669|    1.650805|    0.153613|
|         212|           0|   -1.995595|    0.585735|    0.547163|    3.450493|    1.655404|    0.155857|
|         213|           0|   -2.002250|    0.601496|    0.564459|    3.437551|    1.661589|    0.158245|
|         214|           0|   -2.007475|    0.615876|    0.579717|    3.425381|    1.669267|    0.160741|
|         215|           0|   -2.011354|    0.628246|    0.592542|    3.414309|    1.678336|    0.163311|
|         216|           0|   -2.014019|    0.638386|    0.602700|    3.404573|    1.688671|    0.165921|
|         217|           0|   -2.015778|    0.646142|    0.610103|    3.396264|    1.700144|    0.168535|
|         218|           0|   -2.016982|    0.651586|    0.614702|    3.389428|    1.712608|    0.171118|
|         219|           0|   -2.017693|    0.654496|    0.616414|    3.384313|    1.725910|    0.173637|
|         220|           0|   -2.018247|    0.654666|    0.615400|    3.380759|    1.739880|    0.176059|
+-----------------------------------------------------------------------+
|        File Writing Summary       |              Filename             |
+-----------------------------------------------------------------------+
|SU2 restart                        |solution_flow.dat                  |
|Paraview                           |flow.vtu                           |
|Paraview surface                   |surface_flow.vtu                   |
+-----------------------------------------------------------------------+

Writing the forces breakdown file (forces_breakdown.dat).
+-------------------------------------------------------------------------------------------------------+
|  Inner_Iter|   Time_Iter|    rms[Rho]|   rms[RhoU]|   rms[RhoV]|   rms[RhoE]|          CL|          CD|
+-------------------------------------------------------------------------------------------------------+
|         221|           0|   -2.018900|    0.652165|    0.611648|    3.378533|    1.754354|    0.178352|
|         222|           0|   -2.019663|    0.646876|    0.605128|    3.377637|    1.769156|    0.180486|
|         223|           0|   -2.020473|    0.638839|    0.595823|    3.378174|    1.784116|    0.182435|
|         224|           0|   -2.021554|    0.627984|    0.583521|    3.379787|    1.799054|    0.184174|
|         225|           0|   -2.023249|    0.614578|    0.568485|    3.381822|    1.813804|    0.185682|
|         226|           0|   -2.025755|    0.598882|    0.550823|    3.383840|    1.828191|    0.186939|
|         227|           0|   -2.029202|    0.581011|    0.530675|    3.385473|    1.842062|    0.187932|
|         228|           0|   -2.033541|    0.561174|    0.508220|    3.386546|    1.855262|    0.188649|
|         229|           0|   -2.038867|    0.539842|    0.483858|    3.386801|    1.867652|    0.189083|
|         230|           0|   -2.045104|    0.517602|    0.457916|    3.386172|    1.879093|    0.189227|
+-----------------------------------------------------------------------+
|        File Writing Summary       |              Filename             |
+-----------------------------------------------------------------------+
|SU2 restart                        |solution_flow.dat                  |
|Paraview                           |flow.vtu                           |
|Paraview surface                   |surface_flow.vtu                   |
+-----------------------------------------------------------------------+

Writing the forces breakdown file (forces_breakdown.dat).
+-------------------------------------------------------------------------------------------------------+
|  Inner_Iter|   Time_Iter|    rms[Rho]|   rms[RhoU]|   rms[RhoV]|   rms[RhoE]|          CL|          CD|
+-------------------------------------------------------------------------------------------------------+
|         231|           0|   -2.052333|    0.495320|    0.431134|    3.384390|    1.889469|    0.189082|
|         232|           0|   -2.060531|    0.474098|    0.404581|    3.381350|    1.898675|    0.188650|
|         233|           0|   -2.069464|    0.454856|    0.379675|    3.377151|    1.906622|    0.187938|
|         234|           0|   -2.079205|    0.438795|    0.357945|    3.371529|    1.913232|    0.186955|
|         235|           0|   -2.089643|    0.427034|    0.340966|    3.364543|    1.918455|    0.185715|
|         236|           0|   -2.100288|    0.420339|    0.329958|    3.356526|    1.922247|    0.184233|
|         237|           0|   -2.111076|    0.419090|    0.325580|    3.347419|    1.924600|    0.182532|
|         238|           0|   -2.121775|    0.422935|    0.327682|    3.337299|    1.925509|    0.180632|
|         239|           0|   -2.131969|    0.431175|    0.335329|    3.326546|    1.924993|    0.178558|
|         240|           0|   -2.141973|    0.442687|    0.347097|    3.314773|    1.923087|    0.176337|
+-----------------------------------------------------------------------+
|        File Writing Summary       |              Filename             |
+-----------------------------------------------------------------------+
|SU2 restart                        |solution_flow.dat                  |
|Paraview                           |flow.vtu                           |
|Paraview surface                   |surface_flow.vtu                   |
+-----------------------------------------------------------------------+

Writing the forces breakdown file (forces_breakdown.dat).
+-------------------------------------------------------------------------------------------------------+
|  Inner_Iter|   Time_Iter|    rms[Rho]|   rms[RhoU]|   rms[RhoV]|   rms[RhoE]|          CL|          CD|
+-------------------------------------------------------------------------------------------------------+
|         241|           0|   -2.151498|    0.455966|    0.361384|    3.302216|    1.919845|    0.173998|
|         242|           0|   -2.160356|    0.469711|    0.376774|    3.289098|    1.915333|    0.171569|
|         243|           0|   -2.168267|    0.483094|    0.392082|    3.275818|    1.909626|    0.169080|
|         244|           0|   -2.175587|    0.495320|    0.406447|    3.262105|    1.902822|    0.166562|
|         245|           0|   -2.181621|    0.506121|    0.419323|    3.248991|    1.895024|    0.164044|
|         246|           0|   -2.186326|    0.515199|    0.430208|    3.236891|    1.886347|    0.161557|
|         247|           0|   -2.189738|    0.522093|    0.438882|    3.226154|    1.876918|    0.159130|
|         248|           0|   -2.192237|    0.526590|    0.445103|    3.216797|    1.866868|    0.156792|
|         249|           0|   -2.193870|    0.528749|    0.448702|    3.209240|    1.856333|    0.154571|
|         250|           0|   -2.195054|    0.528621|    0.449636|    3.203346|    1.845456|    0.152492|
+-----------------------------------------------------------------------+
|        File Writing Summary       |              Filename             |
+-----------------------------------------------------------------------+
|SU2 restart                        |solution_flow.dat                  |
|Paraview                           |flow.vtu                           |
|Paraview surface                   |surface_flow.vtu                   |
+-----------------------------------------------------------------------+

Writing the forces breakdown file (forces_breakdown.dat).
+-------------------------------------------------------------------------------------------------------+
|  Inner_Iter|   Time_Iter|    rms[Rho]|   rms[RhoU]|   rms[RhoV]|   rms[RhoE]|          CL|          CD|
+-------------------------------------------------------------------------------------------------------+
|         251|           0|   -2.196695|    0.526114|    0.447843|    3.198421|    1.834377|    0.150580|
|         252|           0|   -2.197859|    0.521082|    0.443389|    3.195552|    1.823237|    0.148854|
|         253|           0|   -2.198756|    0.513514|    0.436215|    3.194499|    1.812174|    0.147334|
|         254|           0|   -2.199802|    0.503398|    0.426304|    3.194700|    1.801324|    0.146035|
|         255|           0|   -2.201261|    0.490715|    0.413678|    3.195705|    1.790816|    0.144970|
|         256|           0|   -2.203223|    0.475565|    0.398387|    3.197284|    1.780778|    0.144151|
|         257|           0|   -2.205753|    0.457970|    0.380477|    3.199174|    1.771325|    0.143584|
|         258|           0|   -2.208883|    0.438063|    0.360113|    3.201119|    1.762566|    0.143274|
|         259|           0|   -2.212820|    0.416060|    0.337362|    3.202675|    1.754601|    0.143223|
|         260|           0|   -2.217692|    0.392227|    0.312501|    3.203493|    1.747517|    0.143430|
+-----------------------------------------------------------------------+
|        File Writing Summary       |              Filename             |
+-----------------------------------------------------------------------+
|SU2 restart                        |solution_flow.dat                  |
|Paraview                           |flow.vtu                           |
|Paraview surface                   |surface_flow.vtu                   |
+-----------------------------------------------------------------------+

Writing the forces breakdown file (forces_breakdown.dat).
+-------------------------------------------------------------------------------------------------------+
|  Inner_Iter|   Time_Iter|    rms[Rho]|   rms[RhoU]|   rms[RhoV]|   rms[RhoE]|          CL|          CD|
+-------------------------------------------------------------------------------------------------------+
|         261|           0|   -2.223487|    0.366955|    0.286037|    3.203435|    1.741389|    0.143888|
|         262|           0|   -2.230193|    0.340759|    0.258541|    3.202373|    1.736281|    0.144591|
|         263|           0|   -2.237676|    0.314385|    0.231029|    3.200284|    1.732239|    0.145528|
|         264|           0|   -2.245906|    0.288861|    0.204740|    3.197062|    1.729308|    0.146687|
|         265|           0|   -2.254763|    0.265449|    0.181318|    3.192680|    1.727504|    0.148053|
|         266|           0|   -2.264222|    0.245469|    0.162419|    3.187053|    1.726844|    0.149609|
|         267|           0|   -2.274063|    0.230084|    0.149485|    3.180255|    1.727319|    0.151335|
|         268|           0|   -2.284515|    0.219647|    0.143394|    3.171875|    1.728918|    0.153210|
|         269|           0|   -2.294929|    0.214499|    0.144110|    3.162441|    1.731609|    0.155211|
|         270|           0|   -2.304774|    0.214548|    0.150701|    3.152426|    1.735352|    0.157316|
+-----------------------------------------------------------------------+
|        File Writing Summary       |              Filename             |
+-----------------------------------------------------------------------+
|SU2 restart                        |solution_flow.dat                  |
|Paraview                           |flow.vtu                           |
|Paraview surface                   |surface_flow.vtu                   |
+-----------------------------------------------------------------------+

Writing the forces breakdown file (forces_breakdown.dat).
+-------------------------------------------------------------------------------------------------------+
|  Inner_Iter|   Time_Iter|    rms[Rho]|   rms[RhoU]|   rms[RhoV]|   rms[RhoE]|          CL|          CD|
+-------------------------------------------------------------------------------------------------------+
|         271|           0|   -2.314215|    0.219546|    0.161762|    3.141622|    1.740094|    0.159500|
|         272|           0|   -2.322676|    0.228300|    0.175798|    3.130628|    1.745771|    0.161738|
|         273|           0|   -2.330070|    0.239440|    0.191278|    3.119547|    1.752312|    0.164004|
|         274|           0|   -2.336328|    0.251897|    0.206980|    3.108644|    1.759637|    0.166273|
|         275|           0|   -2.341373|    0.264504|    0.221934|    3.098241|    1.767653|    0.168520|
|         276|           0|   -2.345407|    0.276207|    0.235566|    3.088260|    1.776266|    0.170719|
|         277|           0|   -2.348616|    0.286369|    0.247317|    3.078857|    1.785372|    0.172846|
|         278|           0|   -2.350848|    0.294668|    0.256782|    3.070550|    1.794867|    0.174879|
|         279|           0|   -2.352273|    0.301027|    0.263968|    3.063487|    1.804638|    0.176794|
|         280|           0|   -2.353157|    0.305325|    0.268724|    3.057709|    1.814576|    0.178571|
+-----------------------------------------------------------------------+
|        File Writing Summary       |              Filename             |
+-----------------------------------------------------------------------+
|SU2 restart                        |solution_flow.dat                  |
|Paraview                           |flow.vtu                           |
|Paraview surface                   |surface_flow.vtu                   |
+-----------------------------------------------------------------------+

Writing the forces breakdown file (forces_breakdown.dat).
+-------------------------------------------------------------------------------------------------------+
|  Inner_Iter|   Time_Iter|    rms[Rho]|   rms[RhoU]|   rms[RhoV]|   rms[RhoE]|          CL|          CD|
+-------------------------------------------------------------------------------------------------------+
|         281|           0|   -2.353740|    0.307425|    0.271056|    3.053185|    1.824569|    0.180191|
|         282|           0|   -2.354200|    0.307235|    0.270946|    3.049885|    1.834509|    0.181638|
|         283|           0|   -2.354709|    0.304800|    0.268412|    3.047727|    1.844283|    0.182896|
|         284|           0|   -2.355608|    0.300215|    0.263467|    3.046337|    1.853792|    0.183952|
|         285|           0|   -2.356919|    0.293334|    0.256213|    3.045631|    1.862932|    0.184797|
|         286|           0|   -2.358916|    0.284309|    0.246712|    3.045198|    1.871614|    0.185422|
|         287|           0|   -2.361699|    0.273216|    0.235012|    3.044835|    1.879747|    0.185823|
|         288|           0|   -2.365349|    0.260190|    0.221294|    3.044355|    1.887254|    0.185998|
|         289|           0|   -2.369883|    0.245490|    0.205674|    3.043645|    1.894061|    0.185945|
|         290|           0|   -2.375391|    0.229487|    0.188497|    3.042434|    1.900104|    0.185667|
+-----------------------------------------------------------------------+
|        File Writing Summary       |              Filename             |
+-----------------------------------------------------------------------+
|SU2 restart                        |solution_flow.dat                  |
|Paraview                           |flow.vtu                           |
|Paraview surface                   |surface_flow.vtu                   |
+-----------------------------------------------------------------------+

Writing the forces breakdown file (forces_breakdown.dat).
+-------------------------------------------------------------------------------------------------------+
|  Inner_Iter|   Time_Iter|    rms[Rho]|   rms[RhoU]|   rms[RhoV]|   rms[RhoE]|          CL|          CD|
+-------------------------------------------------------------------------------------------------------+
|         291|           0|   -2.381859|    0.212568|    0.170127|    3.040577|    1.905330|    0.185169|
|         292|           0|   -2.389315|    0.195133|    0.150943|    3.037900|    1.909700|    0.184459|
|         293|           0|   -2.397728|    0.177771|    0.131554|    3.034302|    1.913180|    0.183545|
|         294|           0|   -2.406943|    0.161181|    0.112688|    3.029811|    1.915754|    0.182442|
|         295|           0|   -2.417012|    0.146170|    0.095169|    3.024239|    1.917412|    0.181163|
|         296|           0|   -2.427820|    0.133356|    0.079834|    3.017575|    1.918159|    0.179725|
|         297|           0|   -2.439108|    0.123485|    0.067411|    3.009964|    1.918005|    0.178144|
|         298|           0|   -2.450656|    0.116911|    0.058498|    3.001479|    1.916972|    0.176440|
|         299|           0|   -2.462402|    0.113792|    0.053426|    2.992014|    1.915092|    0.174633|
|         300|           0|   -2.474238|    0.113808|    0.052151|    2.981462|    1.912409|    0.172745|
+-----------------------------------------------------------------------+
|        File Writing Summary       |              Filename             |
+-----------------------------------------------------------------------+
|SU2 restart                        |solution_flow.dat                  |
|Paraview                           |flow.vtu                           |
|Paraview surface                   |surface_flow.vtu                   |
+-----------------------------------------------------------------------+

Writing the forces breakdown file (forces_breakdown.dat).
+-------------------------------------------------------------------------------------------------------+
|  Inner_Iter|   Time_Iter|    rms[Rho]|   rms[RhoU]|   rms[RhoV]|   rms[RhoE]|          CL|          CD|
+-------------------------------------------------------------------------------------------------------+
|         301|           0|   -2.485970|    0.116711|    0.054319|    2.970009|    1.908971|    0.170798|
|         302|           0|   -2.497199|    0.122088|    0.059226|    2.957993|    1.904839|    0.168815|
|         303|           0|   -2.507735|    0.129179|    0.066092|    2.945551|    1.900081|    0.166818|
|         304|           0|   -2.517516|    0.137320|    0.074116|    2.932758|    1.894769|    0.164830|
|         305|           0|   -2.526150|    0.145899|    0.082571|    2.920098|    1.888979|    0.162872|
|         306|           0|   -2.533665|    0.154256|    0.090828|    2.907627|    1.882793|    0.160968|
|         307|           0|   -2.540240|    0.161895|    0.098348|    2.895332|    1.876297|    0.159137|
|         308|           0|   -2.545765|    0.168432|    0.104778|    2.883576|    1.869576|    0.157400|
|         309|           0|   -2.550242|    0.173596|    0.109817|    2.872744|    1.862718|    0.155774|
|         310|           0|   -2.553758|    0.177183|    0.113230|    2.863056|    1.855814|    0.154278|
+-----------------------------------------------------------------------+
|        File Writing Summary       |              Filename             |
+-----------------------------------------------------------------------+
|SU2 restart                        |solution_flow.dat                  |
|Paraview                           |flow.vtu                           |
|Paraview surface                   |surface_flow.vtu                   |
+-----------------------------------------------------------------------+

Writing the forces breakdown file (forces_breakdown.dat).
+-------------------------------------------------------------------------------------------------------+
|  Inner_Iter|   Time_Iter|    rms[Rho]|   rms[RhoU]|   rms[RhoV]|   rms[RhoE]|          CL|          CD|
+-------------------------------------------------------------------------------------------------------+
|         311|           0|   -2.556486|    0.179047|    0.114847|    2.854662|    1.848950|    0.152926|
|         312|           0|   -2.558691|    0.179052|    0.114489|    2.847546|    1.842210|    0.151732|
|         313|           0|   -2.560639|    0.177111|    0.112089|    2.841640|    1.835675|    0.150707|
|         314|           0|   -2.562486|    0.173232|    0.107627|    2.836953|    1.829423|    0.149861|
|         315|           0|   -2.564433|    0.167339|    0.101105|    2.833345|    1.823527|    0.149202|
|         316|           0|   -2.566717|    0.159395|    0.092493|    2.830578|    1.818056|    0.148734|
|         317|           0|   -2.569428|    0.149438|    0.081792|    2.828530|    1.813070|    0.148461|
|         318|           0|   -2.572675|    0.137494|    0.069073|    2.827010|    1.808622|    0.148382|
|         319|           0|   -2.576534|    0.123584|    0.054402|    2.825806|    1.804757|    0.148497|
|         320|           0|   -2.581024|    0.107808|    0.037875|    2.824768|    1.801517|    0.148802|
+-----------------------------------------------------------------------+
|        File Writing Summary       |              Filename             |
+-----------------------------------------------------------------------+
|SU2 restart                        |solution_flow.dat                  |
|Paraview                           |flow.vtu                           |
|Paraview surface                   |surface_flow.vtu                   |
+-----------------------------------------------------------------------+

Writing the forces breakdown file (forces_breakdown.dat).
+-------------------------------------------------------------------------------------------------------+
|  Inner_Iter|   Time_Iter|    rms[Rho]|   rms[RhoU]|   rms[RhoV]|   rms[RhoE]|          CL|          CD|
+-------------------------------------------------------------------------------------------------------+
|         321|           0|   -2.586199|    0.090251|    0.019615|    2.823675|    1.798931|    0.149289|
|         322|           0|   -2.592092|    0.071126|   -0.000141|    2.822341|    1.797020|    0.149953|
|         323|           0|   -2.598672|    0.050642|   -0.021005|    2.820644|    1.795801|    0.150782|
|         324|           0|   -2.605936|    0.029074|   -0.042517|    2.818403|    1.795277|    0.151766|
|         325|           0|   -2.613981|    0.006875|   -0.064083|    2.815364|    1.795449|    0.152891|
|         326|           0|   -2.622769|   -0.015475|   -0.085002|    2.811434|    1.796305|    0.154144|
|         327|           0|   -2.632190|   -0.037387|   -0.104444|    2.806591|    1.797827|    0.155510|
|         328|           0|   -2.642056|   -0.058224|   -0.121527|    2.800888|    1.799992|    0.156971|
|         329|           0|   -2.652216|   -0.077247|   -0.135421|    2.794321|    1.802767|    0.158512|
|         330|           0|   -2.662472|   -0.093770|   -0.145484|    2.786951|    1.806113|    0.160113|
+-----------------------------------------------------------------------+
|        File Writing Summary       |              Filename             |
+-----------------------------------------------------------------------+
|SU2 restart                        |solution_flow.dat                  |
|Paraview                           |flow.vtu                           |
|Paraview surface                   |surface_flow.vtu                   |
+-----------------------------------------------------------------------+

Writing the forces breakdown file (forces_breakdown.dat).
+-------------------------------------------------------------------------------------------------------+
|  Inner_Iter|   Time_Iter|    rms[Rho]|   rms[RhoU]|   rms[RhoV]|   rms[RhoE]|          CL|          CD|
+-------------------------------------------------------------------------------------------------------+
|         331|           0|   -2.672643|   -0.107164|   -0.151356|    2.778861|    1.809988|    0.161757|
|         332|           0|   -2.682465|   -0.117034|   -0.153076|    2.770246|    1.814341|    0.163426|
|         333|           0|   -2.691764|   -0.123291|   -0.151013|    2.761168|    1.819123|    0.165101|
|         334|           0|   -2.700329|   -0.126128|   -0.145851|    2.751820|    1.824272|    0.166764|
|         335|           0|   -2.708113|   -0.125842|   -0.138422|    2.742284|    1.829731|    0.168397|
|         336|           0|   -2.715065|   -0.122926|   -0.129580|    2.732664|    1.835437|    0.169984|
|         337|           0|   -2.720970|   -0.118070|   -0.120080|    2.723293|    1.841328|    0.171508|
|         338|           0|   -2.725939|   -0.112200|   -0.110654|    2.714211|    1.847336|    0.172954|
|         339|           0|   -2.730181|   -0.106020|   -0.101847|    2.705372|    1.853402|    0.174308|
|         340|           0|   -2.733689|   -0.100099|   -0.094020|    2.697014|    1.859457|    0.175557|
+-----------------------------------------------------------------------+
|        File Writing Summary       |              Filename             |
+-----------------------------------------------------------------------+
|SU2 restart                        |solution_flow.dat                  |
|Paraview                           |flow.vtu                           |
|Paraview surface                   |surface_flow.vtu                   |
+-----------------------------------------------------------------------+

Writing the forces breakdown file (forces_breakdown.dat).
+-------------------------------------------------------------------------------------------------------+
|  Inner_Iter|   Time_Iter|    rms[Rho]|   rms[RhoU]|   rms[RhoV]|   rms[RhoE]|          CL|          CD|
+-------------------------------------------------------------------------------------------------------+
|         341|           0|   -2.736563|   -0.094831|   -0.087434|    2.689270|    1.865442|    0.176689|
|         342|           0|   -2.738977|   -0.090526|   -0.082276|    2.682199|    1.871294|    0.177693|
|         343|           0|   -2.741131|   -0.087406|   -0.078653|    2.675817|    1.876958|    0.178562|
|         344|           0|   -2.743145|   -0.085663|   -0.076614|    2.670192|    1.882379|    0.179289|
|         345|           0|   -2.745233|   -0.085390|   -0.076181|    2.665232|    1.887506|    0.179867|
|         346|           0|   -2.747659|   -0.086570|   -0.077306|    2.660730|    1.892291|    0.180293|
|         347|           0|   -2.750573|   -0.089234|   -0.079978|    2.656586|    1.896696|    0.180566|
|         348|           0|   -2.754120|   -0.093365|   -0.084112|    2.652656|    1.900682|    0.180685|
|         349|           0|   -2.758350|   -0.098893|   -0.089596|    2.648875|    1.904220|    0.180651|
|         350|           0|   -2.763315|   -0.105728|   -0.096293|    2.645148|    1.907283|    0.180468|
+-----------------------------------------------------------------------+
[...]
|         905|           0|   -4.307801|   -1.799568|   -1.779365|    1.153464|    1.942710|    0.169755|
|         906|           0|   -4.245625|   -1.636685|   -1.749262|    1.250114|    1.942719|    0.169756|
|         907|           0|   -4.176256|   -1.400038|   -1.701845|    1.350578|    1.942729|    0.169759|
|         908|           0|   -4.099096|   -1.197684|   -1.636451|    1.453781|    1.942741|    0.169761|
|         909|           0|   -4.137799|   -1.148353|   -1.617516|    1.433727|    1.942752|    0.169764|
|         910|           0|   -4.321166|   -1.253908|   -1.667538|    1.254909|    1.942765|    0.169767|
+-----------------------------------------------------------------------+
|        File Writing Summary       |              Filename             |
+-----------------------------------------------------------------------+
|SU2 restart                        |solution_flow.dat                  |
|Paraview                           |flow.vtu                           |
|Paraview surface                   |surface_flow.vtu                   |
+-----------------------------------------------------------------------+

Writing the forces breakdown file (forces_breakdown.dat).
+-------------------------------------------------------------------------------------------------------+
|  Inner_Iter|   Time_Iter|    rms[Rho]|   rms[RhoU]|   rms[RhoV]|   rms[RhoE]|          CL|          CD|
+-------------------------------------------------------------------------------------------------------+
|         911|           0|   -4.431474|   -1.357420|   -1.712686|    1.105499|    1.942779|    0.169770|
|         912|           0|   -4.453091|   -1.456296|   -1.748021|    1.020963|    1.942792|    0.169773|
|         913|           0|   -4.445907|   -1.548389|   -1.774215|    0.990987|    1.942807|    0.169777|
|         914|           0|   -4.448437|   -1.630760|   -1.792982|    0.975680|    1.942822|    0.169780|
|         915|           0|   -4.469165|   -1.699013|   -1.805766|    0.952659|    1.942838|    0.169784|
|         916|           0|   -4.504648|   -1.749857|   -1.814335|    0.919372|    1.942855|    0.169787|
|         917|           0|   -4.552711|   -1.784088|   -1.820641|    0.875690|    1.942871|    0.169791|
|         918|           0|   -4.484717|   -1.939948|   -1.826163|    0.976451|    1.942889|    0.169794|
|         919|           0|   -4.378380|   -1.692979|   -1.810193|    1.129166|    1.942906|    0.169798|
|         920|           0|   -4.300834|   -1.447586|   -1.768863|    1.240015|    1.942924|    0.169801|
+-----------------------------------------------------------------------+
|        File Writing Summary       |              Filename             |
+-----------------------------------------------------------------------+
|SU2 restart                        |solution_flow.dat                  |
|Paraview                           |flow.vtu                           |
|Paraview surface                   |surface_flow.vtu                   |
+-----------------------------------------------------------------------+

Writing the forces breakdown file (forces_breakdown.dat).
+-------------------------------------------------------------------------------------------------------+
|  Inner_Iter|   Time_Iter|    rms[Rho]|   rms[RhoU]|   rms[RhoV]|   rms[RhoE]|          CL|          CD|
+-------------------------------------------------------------------------------------------------------+
|         921|           0|   -4.264707|   -1.307339|   -1.720592|    1.299333|    1.942941|    0.169804|
|         922|           0|   -4.271143|   -1.239092|   -1.685663|    1.309258|    1.942959|    0.169807|
|         923|           0|   -4.312335|   -1.223121|   -1.674160|    1.276223|    1.942978|    0.169810|
|         924|           0|   -4.371048|   -1.247396|   -1.688235|    1.209320|    1.942995|    0.169813|
|         925|           0|   -4.422671|   -1.305666|   -1.725328|    1.120537|    1.943013|    0.169815|
|         926|           0|   -4.441352|   -1.397474|   -1.776793|    1.036468|    1.943031|    0.169817|
|         927|           0|   -4.418321|   -1.528579|   -1.824380|    1.009787|    1.943048|    0.169819|
|         928|           0|   -4.368783|   -1.706416|   -1.845661|    1.062257|    1.943065|    0.169821|
|         929|           0|   -4.310289|   -1.837151|   -1.832794|    1.151544|    1.943082|    0.169822|
|         930|           0|   -4.248024|   -1.656541|   -1.794305|    1.248118|    1.943098|    0.169824|
+-----------------------------------------------------------------------+
|        File Writing Summary       |              Filename             |
+-----------------------------------------------------------------------+
|SU2 restart                        |solution_flow.dat                  |
|Paraview                           |flow.vtu                           |
|Paraview surface                   |surface_flow.vtu                   |
+-----------------------------------------------------------------------+

Writing the forces breakdown file (forces_breakdown.dat).
+-------------------------------------------------------------------------------------------------------+
|  Inner_Iter|   Time_Iter|    rms[Rho]|   rms[RhoU]|   rms[RhoV]|   rms[RhoE]|          CL|          CD|
+-------------------------------------------------------------------------------------------------------+
|         931|           0|   -4.178371|   -1.408238|   -1.737268|    1.348755|    1.943113|    0.169825|
|         932|           0|   -4.101076|   -1.202010|   -1.662489|    1.452013|    1.943128|    0.169825|
|         933|           0|   -4.135527|   -1.147601|   -1.638985|    1.436410|    1.943142|    0.169826|
|         934|           0|   -4.320242|   -1.254041|   -1.694852|    1.257165|    1.943156|    0.169826|
|         935|           0|   -4.432294|   -1.358973|   -1.747046|    1.106785|    1.943169|    0.169825|
|         936|           0|   -4.454185|   -1.459907|   -1.789248|    1.021348|    1.943181|    0.169825|
|         937|           0|   -4.446407|   -1.554753|   -1.821328|    0.991169|    1.943192|    0.169824|
|         938|           0|   -4.447968|   -1.640494|   -1.844561|    0.976503|    1.943202|    0.169823|
|         939|           0|   -4.468304|   -1.712319|   -1.860228|    0.953703|    1.943213|    0.169822|
|         940|           0|   -4.503545|   -1.766141|   -1.870200|    0.920506|    1.943222|    0.169820|
+-----------------------------------------------------------------------+
|        File Writing Summary       |              Filename             |
+-----------------------------------------------------------------------+
|SU2 restart                        |solution_flow.dat                  |
|Paraview                           |flow.vtu                           |
|Paraview surface                   |surface_flow.vtu                   |
+-----------------------------------------------------------------------+

Writing the forces breakdown file (forces_breakdown.dat).
+-------------------------------------------------------------------------------------------------------+
|  Inner_Iter|   Time_Iter|    rms[Rho]|   rms[RhoU]|   rms[RhoV]|   rms[RhoE]|          CL|          CD|
+-------------------------------------------------------------------------------------------------------+
|         941|           0|   -4.551430|   -1.802234|   -1.876919|    0.876853|    1.943231|    0.169819|
|         942|           0|   -4.485466|   -1.979332|   -1.882015|    0.975011|    1.943239|    0.169817|
|         943|           0|   -4.378917|   -1.709245|   -1.859620|    1.128005|    1.943246|    0.169815|
|         944|           0|   -4.301015|   -1.453767|   -1.807195|    1.239388|    1.943253|    0.169813|
|         945|           0|   -4.264451|   -1.310441|   -1.749221|    1.299300|    1.943260|    0.169811|
|         946|           0|   -4.270546|   -1.240763|   -1.708385|    1.309757|    1.943265|    0.169809|
|         947|           0|   -4.311849|   -1.223990|   -1.694358|    1.276990|    1.943270|    0.169807|
|         948|           0|   -4.371316|   -1.247803|   -1.708742|    1.210001|    1.943275|    0.169805|
|         949|           0|   -4.424176|   -1.305860|   -1.749053|    1.120613|    1.943279|    0.169803|
|         950|           0|   -4.444063|   -1.397751|   -1.807006|    1.035024|    1.943283|    0.169800|
+-----------------------------------------------------------------------+
|        File Writing Summary       |              Filename             |
+-----------------------------------------------------------------------+
|SU2 restart                        |solution_flow.dat                  |
|Paraview                           |flow.vtu                           |
|Paraview surface                   |surface_flow.vtu                   |
+-----------------------------------------------------------------------+

Writing the forces breakdown file (forces_breakdown.dat).
+-------------------------------------------------------------------------------------------------------+
|  Inner_Iter|   Time_Iter|    rms[Rho]|   rms[RhoU]|   rms[RhoV]|   rms[RhoE]|          CL|          CD|
+-------------------------------------------------------------------------------------------------------+
|         951|           0|   -4.421610|   -1.529616|   -1.863040|    1.006351|    1.943286|    0.169798|
|         952|           0|   -4.371888|   -1.710674|   -1.889578|    1.058361|    1.943290|    0.169796|
|         953|           0|   -4.312895|   -1.849895|   -1.874916|    1.148339|    1.943293|    0.169795|
|         954|           0|   -4.250031|   -1.665423|   -1.829983|    1.245739|    1.943296|    0.169793|
|         955|           0|   -4.180105|   -1.413141|   -1.765277|    1.346759|    1.943299|    0.169792|
|         956|           0|   -4.102773|   -1.205282|   -1.682959|    1.450140|    1.943302|    0.169790|
|         957|           0|   -4.133535|   -1.146684|   -1.655455|    1.438389|    1.943305|    0.169789|
|         958|           0|   -4.319470|   -1.253414|   -1.716271|    1.258610|    1.943308|    0.169788|
|         959|           0|   -4.433625|   -1.358838|   -1.774530|    1.106987|    1.943310|    0.169787|
|         960|           0|   -4.456514|   -1.460568|   -1.822729|    1.020211|    1.943314|    0.169786|
+-----------------------------------------------------------------------+
|        File Writing Summary       |              Filename             |
+-----------------------------------------------------------------------+
|SU2 restart                        |solution_flow.dat                  |
|Paraview                           |flow.vtu                           |
|Paraview surface                   |surface_flow.vtu                   |
+-----------------------------------------------------------------------+

Writing the forces breakdown file (forces_breakdown.dat).
+-------------------------------------------------------------------------------------------------------+
|  Inner_Iter|   Time_Iter|    rms[Rho]|   rms[RhoU]|   rms[RhoV]|   rms[RhoE]|          CL|          CD|
+-------------------------------------------------------------------------------------------------------+
|         961|           0|   -4.448718|   -1.556645|   -1.859998|    0.989430|    1.943317|    0.169786|
|         962|           0|   -4.449972|   -1.644199|   -1.887201|    0.974821|    1.943320|    0.169785|
|         963|           0|   -4.470518|   -1.718417|   -1.905465|    0.951672|    1.943325|    0.169785|
|         964|           0|   -4.506385|   -1.774791|   -1.916791|    0.917674|    1.943329|    0.169785|
|         965|           0|   -4.555535|   -1.813084|   -1.924131|    0.872495|    1.943334|    0.169786|
|         966|           0|   -4.489900|   -2.003482|   -1.929208|    0.970519|    1.943340|    0.169786|
|         967|           0|   -4.382053|   -1.717852|   -1.900713|    1.125170|    1.943346|    0.169787|
|         968|           0|   -4.303256|   -1.456929|   -1.838079|    1.237542|    1.943352|    0.169787|
|         969|           0|   -4.265982|   -1.312064|   -1.771886|    1.298160|    1.943358|    0.169788|
|         970|           0|   -4.271575|   -1.241627|   -1.726459|    1.309137|    1.943365|    0.169789|
+-----------------------------------------------------------------------+
|        File Writing Summary       |              Filename             |
+-----------------------------------------------------------------------+
|SU2 restart                        |solution_flow.dat                  |
|Paraview                           |flow.vtu                           |
|Paraview surface                   |surface_flow.vtu                   |
+-----------------------------------------------------------------------+

Writing the forces breakdown file (forces_breakdown.dat).
+-------------------------------------------------------------------------------------------------------+
|  Inner_Iter|   Time_Iter|    rms[Rho]|   rms[RhoU]|   rms[RhoV]|   rms[RhoE]|          CL|          CD|
+-------------------------------------------------------------------------------------------------------+
|         971|           0|   -4.312531|   -1.224409|   -1.710749|    1.276754|    1.943371|    0.169791|
|         972|           0|   -4.371885|   -1.247961|   -1.725865|    1.209947|    1.943379|    0.169792|
|         973|           0|   -4.424813|   -1.305910|   -1.769541|    1.120465|    1.943387|    0.169794|
|         974|           0|   -4.444705|   -1.397917|   -1.834078|    1.034413|    1.943395|    0.169795|
|         975|           0|   -4.422134|   -1.530492|   -1.898936|    1.005108|    1.943404|    0.169797|
|         976|           0|   -4.372361|   -1.714659|   -1.930878|    1.056825|    1.943413|    0.169799|
|         977|           0|   -4.313331|   -1.862955|   -1.913459|    1.146917|    1.943423|    0.169801|
|         978|           0|   -4.250501|   -1.674682|   -1.861022|    1.244434|    1.943432|    0.169803|
|         979|           0|   -4.180982|   -1.418202|   -1.788375|    1.345221|    1.943442|    0.169805|
|         980|           0|   -4.103935|   -1.208720|   -1.699169|    1.448498|    1.943452|    0.169807|
+-----------------------------------------------------------------------+
|        File Writing Summary       |              Filename             |
+-----------------------------------------------------------------------+
|SU2 restart                        |solution_flow.dat                  |
|Paraview                           |flow.vtu                           |
|Paraview surface                   |surface_flow.vtu                   |
+-----------------------------------------------------------------------+

Writing the forces breakdown file (forces_breakdown.dat).
+-------------------------------------------------------------------------------------------------------+
|  Inner_Iter|   Time_Iter|    rms[Rho]|   rms[RhoU]|   rms[RhoV]|   rms[RhoE]|          CL|          CD|
+-------------------------------------------------------------------------------------------------------+
|         981|           0|   -4.131053|   -1.145941|   -1.667656|    1.440521|    1.943462|    0.169809|
|         982|           0|   -4.317732|   -1.253026|   -1.732608|    1.260299|    1.943472|    0.169810|
|         983|           0|   -4.433700|   -1.359077|   -1.796530|    1.107392|    1.943482|    0.169812|
|         984|           0|   -4.457889|   -1.461817|   -1.851128|    1.018888|    1.943493|    0.169814|
|         985|           0|   -4.450196|   -1.559417|   -1.894823|    0.987329|    1.943504|    0.169815|
|         986|           0|   -4.451087|   -1.649108|   -1.927832|    0.972854|    1.943514|    0.169817|
|         987|           0|   -4.471654|   -1.725977|   -1.950749|    0.949592|    1.943525|    0.169818|
|         988|           0|   -4.507780|   -1.785037|   -1.965298|    0.915313|    1.943535|    0.169819|
|         989|           0|   -4.556873|   -1.825537|   -1.974694|    0.870351|    1.943545|    0.169821|
|         990|           0|   -4.491721|   -2.036172|   -1.980811|    0.968199|    1.943555|    0.169822|
+-----------------------------------------------------------------------+
|        File Writing Summary       |              Filename             |
+-----------------------------------------------------------------------+
|SU2 restart                        |solution_flow.dat                  |
|Paraview                           |flow.vtu                           |
|Paraview surface                   |surface_flow.vtu                   |
+-----------------------------------------------------------------------+

Writing the forces breakdown file (forces_breakdown.dat).
+-------------------------------------------------------------------------------------------------------+
|  Inner_Iter|   Time_Iter|    rms[Rho]|   rms[RhoU]|   rms[RhoV]|   rms[RhoE]|          CL|          CD|
+-------------------------------------------------------------------------------------------------------+
|         991|           0|   -4.383134|   -1.729038|   -1.944886|    1.123915|    1.943565|    0.169823|
|         992|           0|   -4.303792|   -1.460928|   -1.869819|    1.236948|    1.943575|    0.169824|
|         993|           0|   -4.266040|   -1.314094|   -1.794180|    1.298097|    1.943585|    0.169824|
|         994|           0|   -4.271219|   -1.242814|   -1.743596|    1.309533|    1.943593|    0.169825|
|         995|           0|   -4.311980|   -1.225171|   -1.725793|    1.277494|    1.943602|    0.169825|
|         996|           0|   -4.371391|   -1.248537|   -1.741105|    1.210960|    1.943611|    0.169826|
|         997|           0|   -4.424742|   -1.306511|   -1.787322|    1.121589|    1.943619|    0.169826|
|         998|           0|   -4.445405|   -1.398857|   -1.857315|    1.035126|    1.943627|    0.169826|
|         999|           0|   -4.423488|   -1.532549|   -1.929838|    1.004647|    1.943635|    0.169826|

----------------------------- Solver Exit -------------------------------

Maximum number of iterations reached (ITER = 1000) before convergence.
+-----------------------------------------------------------------------+
|      Convergence Field     |     Value    |   Criterion  |  Converged |
+-----------------------------------------------------------------------+
|                  Cauchy[CD]|   9.25955e-06|       < 1e-10|          No|
+-----------------------------------------------------------------------+
-------------------------------------------------------------------------
+-----------------------------------------------------------------------+
|        File Writing Summary       |              Filename             |
+-----------------------------------------------------------------------+
|SU2 restart                        |solution_flow.dat                  |
|Paraview                           |flow.vtu                           |
|Paraview surface                   |surface_flow.vtu                   |
+-----------------------------------------------------------------------+

Writing the forces breakdown file (forces_breakdown.dat).

------------------------- Solver Postprocessing -------------------------
Deleted CNumerics container.
Deleted CIntegration container.
Deleted CSolver container.
Deleted CIteration container.
Deleted CInterpolator container.
Deleted CInterface container.
Deleted CGeometry container.
Deleted CFreeFormDefBox class.
Deleted CSurfaceMovement class.
Deleted CVolumetricMovement class.
Deleted CConfig container.
Deleted nInst container.
Deleted COutput class.
-------------------------------------------------------------------------

------------------------- Exit Success (SU2_CFD) ------------------------

