
-------------------------------------------------------------------------
|    ___ _   _ ___                                                      |
|   / __| | | |_  )   Release 7.0.3 "Blackbird"                       |
|   \__ \ |_| |/ /                                                    |
|   |___/\___//___|   Suite (Computational Fluid Dynamics Code)        |
|                                                                       |
-------------------------------------------------------------------------
| SU2 Project Website: https://su2code.github.io                        |
|                                                                       |
| The SU2 Project is maintained by the SU2 Foundation                   |
| (http://su2foundation.org)                                            |
-------------------------------------------------------------------------
| Copyright 2012-2020, SU2 Contributors                                 |
|                                                                       |
| SU2 is free software; you can redistribute it and/or                  |
| modify it under the terms of the GNU Lesser General Public            |
| License as published by the Free Software Foundation; either          |
| version 2.1 of the License, or (at your option) any later version.    |
|                                                                       |
| SU2 is distributed in the hope that it will be useful,                |
| but WITHOUT ANY WARRANTY; without even the implied warranty of        |
| MERCHANTABILITY or FITNESS FOR A PARTICULAR PURPOSE. See the GNU      |
| Lesser General Public License for more details.                       |
|                                                                       |
| You should have received a copy of the GNU Lesser General Public      |
| License along with SU2. If not, see <http://www.gnu.org/licenses/>.   |
-------------------------------------------------------------------------


Problem definition:

Compressible Euler equations.
Mach number: 0.21.
Angle of attack (AoA): 2 deg, and angle of sideslip (AoS): 0 deg.
Dimensional simulation.
The reference area is 55.7983 m^2.
The reference length is 1.8008 m.


Problem definition:

Inviscid flow: Computing density based on free-stream
temperature and pressure using the ideal gas law.
Force coefficients computed using free-stream values.
-- Input conditions:
Fluid Model: STANDARD_AIR 
Specific gas constant: 287.058 N.m/kg.K.
Specific gas constant (non-dim): 287.058
Specific Heat Ratio: 1.4000 
Free-stream static pressure: 101325 Pa.
Free-stream total pressure: 104488 Pa.
Free-stream temperature: 288.15 K.
Free-stream total temperature: 290.691 K.
Free-stream density: 1.22498 kg/m^3.
Free-stream velocity: (71.4188, 0, 2.494) m/s. Magnitude: 71.4624 m/s.
Free-stream total energy per unit mass: 209343 m^2/s^2.
-- Reference values:
Reference specific gas constant: 1 N.m/kg.K.
Reference pressure: 1 Pa.
Reference temperature: 1 K.
Reference density: 1 kg/m^3.
Reference velocity: 1 m/s.
Reference energy per unit mass: 1 m^2/s^2.
-- Resulting non-dimensional state:
Mach number (non-dim): 0.21
Specific gas constant (non-dim): 287.058
Free-stream temperature (non-dim): 288.15
Free-stream pressure (non-dim): 101325
Free-stream density (non-dim): 1.22498
Free-stream velocity (non-dim): (71.4188, 0, 2.494). Magnitude: 71.4624
Free-stream total energy per unit mass (non-dim): 209343


Forces breakdown:

Center of Pressure: X=-0.019261Z+9.949257 m.

NOTE: Multiply forces by the non-dimensional factor: 174531.656015, and the reference factor: 1.000000
to obtain the dimensional force.

Total CL:       0.511156 | Pressure (   99%):    0.511156 | Friction (    0%):    0.000000 | Momentum (    0%):    0.000000
Total CD:       0.007999 | Pressure (   99%):    0.007999 | Friction (    0%):    0.000000 | Momentum (    0%):    0.000000
Total CSF:      0.001786 | Pressure (   99%):    0.001786 | Friction (    0%):    0.000000 | Momentum (    0%):    0.000000
Total CL/CD:   63.902277 | Pressure (  100%):   63.902277 | Friction (    0%):    0.000000 | Momentum (    0%):    0.000000
Total CMx:     -0.007837 | Pressure (  100%):   -0.007837 | Friction (    0%):    0.000000 | Momentum (    0%):    0.000000
Total CMy:     -0.082047 | Pressure (  100%):   -0.082047 | Friction (    0%):    0.000000 | Momentum (    0%):    0.000000
Total CMz:      0.003739 | Pressure (   99%):    0.003739 | Friction (    0%):    0.000000 | Momentum (    0%):    0.000000
Total CFx:     -0.009845 | Pressure (  100%):   -0.009845 | Friction (    0%):    0.000000 | Momentum (    0%):    0.000000
Total CFy:      0.001786 | Pressure (   99%):    0.001786 | Friction (    0%):    0.000000 | Momentum (    0%):    0.000000
Total CFz:      0.511124 | Pressure (   99%):    0.511124 | Friction (    0%):    0.000000 | Momentum (    0%):    0.000000


Surface name: VTP

Total CL    (    0%):    0.000399 | Pressure (   99%):    0.000399 | Friction (    0%):    0.000000 | Momentum (    0%):    0.000000
Total CD    (    3%):    0.000293 | Pressure (   99%):    0.000293 | Friction (    0%):    0.000000 | Momentum (    0%):    0.000000
Total CSF   (   64%):    0.001146 | Pressure (   99%):    0.001146 | Friction (    0%):    0.000000 | Momentum (    0%):    0.000000
Total CL/CD (    2%):    1.362517 | Pressure (  100%):    1.362517 | Friction (    0%):    0.000000 | Momentum (    0%):    0.000000
Total CMx   (   15%):   -0.001224 | Pressure (  100%):   -0.001224 | Friction (    0%):    0.000000 | Momentum (    0%):    0.000000
Total CMy   (    0%):   -0.000776 | Pressure (  100%):   -0.000776 | Friction (    0%):    0.000000 | Momentum (    0%):    0.000000
Total CMz   (   92%):    0.003475 | Pressure (   99%):    0.003475 | Friction (    0%):    0.000000 | Momentum (    0%):    0.000000
Total CFx   (   -2%):    0.000279 | Pressure (   99%):    0.000279 | Friction (    0%):    0.000000 | Momentum (    0%):    0.000000
Total CFy   (   64%):    0.001146 | Pressure (   99%):    0.001146 | Friction (    0%):    0.000000 | Momentum (    0%):    0.000000
Total CFz   (    0%):    0.000409 | Pressure (   99%):    0.000409 | Friction (    0%):    0.000000 | Momentum (    0%):    0.000000

Surface name: Fuselage

Total CL    (    6%):    0.035137 | Pressure (   99%):    0.035137 | Friction (    0%):    0.000000 | Momentum (    0%):    0.000000
Total CD    (   29%):    0.002334 | Pressure (   99%):    0.002334 | Friction (    0%):    0.000000 | Momentum (    0%):    0.000000
Total CSF   (   53%):    0.000959 | Pressure (   99%):    0.000959 | Friction (    0%):    0.000000 | Momentum (    0%):    0.000000
Total CL/CD (   23%):   15.056888 | Pressure (  100%):   15.056888 | Friction (    0%):    0.000000 | Momentum (    0%):    0.000000
Total CMx   (    3%):   -0.000311 | Pressure (  100%):   -0.000311 | Friction (    0%):    0.000000 | Momentum (    0%):    0.000000
Total CMy   (  -14%):    0.011611 | Pressure (   99%):    0.011611 | Friction (    0%):    0.000000 | Momentum (    0%):    0.000000
Total CMz   (   15%):    0.000596 | Pressure (   99%):    0.000596 | Friction (    0%):    0.000000 | Momentum (    0%):    0.000000
Total CFx   (  -11%):    0.001106 | Pressure (   99%):    0.001106 | Friction (    0%):    0.000000 | Momentum (    0%):    0.000000
Total CFy   (   53%):    0.000959 | Pressure (   99%):    0.000959 | Friction (    0%):    0.000000 | Momentum (    0%):    0.000000
Total CFz   (    6%):    0.035197 | Pressure (   99%):    0.035197 | Friction (    0%):    0.000000 | Momentum (    0%):    0.000000

Surface name: HTP

Total CL    (   -7%):   -0.036878 | Pressure (  100%):   -0.036878 | Friction (    0%):    0.000000 | Momentum (    0%):    0.000000
Total CD    (  -12%):   -0.000987 | Pressure (  100%):   -0.000987 | Friction (    0%):    0.000000 | Momentum (    0%):    0.000000
Total CSF   (  -13%):   -0.000245 | Pressure (  100%):   -0.000245 | Friction (    0%):    0.000000 | Momentum (    0%):    0.000000
Total CL/CD (   58%):   37.356889 | Pressure (  100%):   37.356889 | Friction (    0%):    0.000000 | Momentum (    0%):    0.000000
Total CMx   (    8%):   -0.000638 | Pressure (  100%):   -0.000638 | Friction (    0%):    0.000000 | Momentum (    0%):    0.000000
Total CMy   ( -154%):    0.126859 | Pressure (   99%):    0.126859 | Friction (    0%):    0.000000 | Momentum (    0%):    0.000000
Total CMz   (  -22%):   -0.000836 | Pressure (  100%):   -0.000836 | Friction (    0%):    0.000000 | Momentum (    0%):    0.000000
Total CFx   (   -3%):    0.000300 | Pressure (   99%):    0.000300 | Friction (    0%):    0.000000 | Momentum (    0%):    0.000000
Total CFy   (  -13%):   -0.000245 | Pressure (  100%):   -0.000245 | Friction (    0%):    0.000000 | Momentum (    0%):    0.000000
Total CFz   (   -7%):   -0.036890 | Pressure (  100%):   -0.036890 | Friction (    0%):    0.000000 | Momentum (    0%):    0.000000

Surface name: Wing

Total CL    (  100%):    0.512498 | Pressure (   99%):    0.512498 | Friction (    0%):    0.000000 | Momentum (    0%):    0.000000
Total CD    (   79%):    0.006360 | Pressure (   99%):    0.006360 | Friction (    0%):    0.000000 | Momentum (    0%):    0.000000
Total CSF   (   -4%):   -0.000074 | Pressure (  100%):   -0.000074 | Friction (    0%):    0.000000 | Momentum (    0%):    0.000000
Total CL/CD (  126%):   80.582786 | Pressure (  100%):   80.582786 | Friction (    0%):    0.000000 | Momentum (    0%):    0.000000
Total CMx   (   72%):   -0.005664 | Pressure (  100%):   -0.005664 | Friction (    0%):    0.000000 | Momentum (    0%):    0.000000
Total CMy   (  267%):   -0.219740 | Pressure (  100%):   -0.219740 | Friction (    0%):    0.000000 | Momentum (    0%):    0.000000
Total CMz   (   13%):    0.000504 | Pressure (   99%):    0.000504 | Friction (    0%):    0.000000 | Momentum (    0%):    0.000000
Total CFx   (  117%):   -0.011530 | Pressure (  100%):   -0.011530 | Friction (    0%):    0.000000 | Momentum (    0%):    0.000000
Total CFy   (   -4%):   -0.000074 | Pressure (  100%):   -0.000074 | Friction (    0%):    0.000000 | Momentum (    0%):    0.000000
Total CFz   (  100%):    0.512408 | Pressure (   99%):    0.512408 | Friction (    0%):    0.000000 | Momentum (    0%):    0.000000

