
-------------------------------------------------------------------------
|    ___ _   _ ___                                                      |
|   / __| | | |_  )   Release 7.0.3 "Blackbird"                         |
|   \__ \ |_| |/ /                                                      |
|   |___/\___//___|   Suite (Computational Fluid Dynamics Code)         |
|                                                                       |
-------------------------------------------------------------------------
| SU2 Project Website: https://su2code.github.io                        |
|                                                                       |
| The SU2 Project is maintained by the SU2 Foundation                   |
| (http://su2foundation.org)                                            |
-------------------------------------------------------------------------
| Copyright 2012-2020, SU2 Contributors                                 |
|                                                                       |
| SU2 is free software; you can redistribute it and/or                  |
| modify it under the terms of the GNU Lesser General Public            |
| License as published by the Free Software Foundation; either          |
| version 2.1 of the License, or (at your option) any later version.    |
|                                                                       |
| SU2 is distributed in the hope that it will be useful,                |
| but WITHOUT ANY WARRANTY; without even the implied warranty of        |
| MERCHANTABILITY or FITNESS FOR A PARTICULAR PURPOSE. See the GNU      |
| Lesser General Public License for more details.                       |
|                                                                       |
| You should have received a copy of the GNU Lesser General Public      |
| License along with SU2. If not, see <http://www.gnu.org/licenses/>.   |
-------------------------------------------------------------------------

Parsing config file for zone 0

----------------- Physical Case Definition ( Zone 0 ) -------------------
Compressible Euler equations.
Mach number: 0.21.
Angle of attack (AoA): 2 deg, and angle of sideslip (AoS): 0 deg.
No restart solution, use the values at infinity (freestream).
Dimensional simulation.
The reference area is 55.7983 m^2.
The semi-span will be computed using the max y(3D) value.
The reference length is 1.8008 m.
Surface(s) where the force coefficients are evaluated and 
their reference origin for moment computation: 
   - VTP (9.6115, 0, 2.5277).
   - Fuselage (9.6115, 0, 2.5277).
   - HTP (9.6115, 0, 2.5277).
   - Wing (9.6115, 0, 2.5277) m.
Surface(s) where the objective function is evaluated: airfoil.
Surface(s) plotted in the output file: VTP, Fuselage, HTP, Wing.
Surface(s) to be analyzed in detail: airfoil.
Surface(s) affected by the design variables: VTP, Fuselage, HTP, Wing.
Input mesh file name: deformed.su2

--------------- Space Numerical Integration ( Zone 0 ) ------------------
Roe (with entropy fix = 0) solver for the flow inviscid terms.
Roe with DDES's FD low-dissipation function.
Second order integration in space, with slope limiter.
Venkatakrishnan slope-limiting method, with constant: 0.05. 
The reference element size is: 1. 
Gradient for upwind reconstruction: Green-Gauss.
Gradient for viscous and source terms: Green-Gauss.

--------------- Time Numerical Integration  ( Zone 0 ) ------------------
Local time stepping (steady state simulation).
Euler implicit method for the flow equations.
FGMRES is used for solving the linear system.
Using a ILU(0) preconditioning.
Convergence criteria of the linear solver: 1e-06.
Max number of linear iterations: 5.
V Multigrid Cycle, with 3 multigrid levels.
Damping factor for the residual restriction: 0.75.
Damping factor for the correction prolongation: 0.75.
No CFL adaptation.
+-------------------------------------------+
|  MG Level| Presmooth|PostSmooth|CorrectSmo|
+-------------------------------------------+
|         0|         1|         0|         0|
|         1|         2|         0|         0|
|         2|         3|         0|         0|
|         3|         3|         0|         0|
+-------------------------------------------+
Courant-Friedrichs-Lewy number:        1

------------------ Convergence Criteria  ( Zone 0 ) ---------------------
Maximum number of solver subiterations: 1000.
Begin convergence monitoring at iteration 10.
Residual minimum value: 1e-8.
Cauchy series min. value: 1e-10.
Number of Cauchy elements: 100.
Begin windowed time average at iteration 15.

-------------------- Output Information ( Zone 0 ) ----------------------
Writing solution files every 10 iterations.
Writing the convergence history file every 1 inner iterations.
Writing the screen convergence history every 1 inner iterations.
The tabular file format is Tecplot (.dat).
Convergence history file name: history.
Forces breakdown file name: forces_breakdown.dat.
Surface file name: surface_flow.
Volume file name: flow.
Restart file name: solution_flow.dat.

------------- Config File Boundary Information ( Zone 0 ) ---------------
+-----------------------------------------------------------------------+
|                        Marker Type|                        Marker Name|
+-----------------------------------------------------------------------+
|                         Euler wall|                                VTP|
|                                   |                           Fuselage|
|                                   |                                HTP|
|                                   |                               Wing|
+-----------------------------------------------------------------------+
|                          Far-field|                           Farfield|
+-----------------------------------------------------------------------+
|                     Symmetry plane|                                  0|
+-----------------------------------------------------------------------+
|           Deformable mesh boundary|                            airfoil|
+-----------------------------------------------------------------------+

-------------------- Output Preprocessing ( Zone 0 ) --------------------
Screen output fields: INNER_ITER, TIME_ITER, RMS_DENSITY, RMS_MOMENTUM-X, RMS_MOMENTUM-Y, RMS_ENERGY, LIFT, DRAG
  Info: Ignoring the following history output groups:
  TIME_ITER
History output group(s): ITER, RMS_RES, AERO_COEFF
Warning: No (valid) fields chosen for convergence monitoring. Convergence monitoring inactive.
Warning: No (valid) fields chosen for time convergence monitoring. Time convergence monitoring inactive.
Volume output fields: COORDINATES, SOLUTION, PRIMITIVE

------------------- Geometry Preprocessing ( Zone 0 ) -------------------
Three dimensional problem.
134403 grid points before partitioning.
750945 volume elements before partitioning.
5 surface markers.
2298 boundary elements in index 0 (Marker = VTP).
6838 boundary elements in index 1 (Marker = Fuselage).
9046 boundary elements in index 2 (Marker = HTP).
42568 boundary elements in index 3 (Marker = Wing).
1280 boundary elements in index 4 (Marker = Farfield).
Executing the partitioning functions.
Building the graph adjacency structure.
Calling ParMETIS... graph partitioning complete (14371 edge cuts).
Distributing ParMETIS coloring.
Rebalancing vertices.
Rebalancing volume element connectivity.
Rebalancing markers and surface elements.
142496 vertices including ghost points. 
772621 interior elements including halo cells. 
772621 tetrahedra.
Establishing MPI communication patterns.
Setting point connectivity.
Renumbering points (Reverse Cuthill McKee Ordering).
Recomputing point connectivity.
Setting element connectivity.
Checking the numerical grid orientation.
Identifying edges and vertices.
Computing centers of gravity.
Setting the control volume structure.
Volume of the computational grid: 5.51666e+06.
Searching for the closest normal neighbors to the surfaces.
Storing a mapping from global to local point index.
Compute the surface curvature.
Max K: 877.65. Mean K: 41.4447. Standard deviation K: 83.402.
Checking for periodicity.
Computing mesh quality statistics for the dual control volumes.
+--------------------------------------------------------------+
|           Mesh Quality Metric|        Minimum|        Maximum|
+--------------------------------------------------------------+
|    Orthogonality Angle (deg.)|        34.3298|        84.7064|
|     CV Face Area Aspect Ratio|        1.24055|         323.72|
|           CV Sub-Volume Ratio|        1.03422|        2942.54|
+--------------------------------------------------------------+
Setting the multigrid structure.
+-------------------------------------------+
|  MG Level|       CVs|Aggl. Rate|       CFL|
+-------------------------------------------+
|         0|    142496|    1/1.00|         1|
|         1|     25276|    1/5.64|  0.842804|
|         2|      5944|    1/4.25|  0.780323|
Finding max control volume width.
Communicating number of neighbors.
Semi-span length = 16.1731 m.
Wetted area = 186.307 m^2.
Area projection in the x-plane = 11.7743 m^2, y-plane = 22.9932 m^2, z-plane = 75.0475 m^2.
Max. coordinate in the x-direction = 16.6524 m, y-direction = 16.1731 m, z-direction = 5.46231 m.
Min. coordinate in the x-direction = 2.49934 m, y-direction = -16.1731 m, z-direction = 2.25601 m.
Checking if Euler & Symmetry markers are straight/plane:
Boundary marker VTP is NOT a single plane.
Boundary marker Fuselage is NOT a single plane.
Boundary marker HTP is NOT a single plane.
Boundary marker Wing is NOT a single plane.
Boundary marker 0 is a single plane.

-------------------- Solver Preprocessing ( Zone 0 ) --------------------
Inviscid flow: Computing density based on free-stream
temperature and pressure using the ideal gas law.
Force coefficients computed using free-stream values.

-- Models:
+------------------------------------------------------------------------------+
|          Viscosity Model|        Conductivity Model|              Fluid Model|
+------------------------------------------------------------------------------+
|                        -|                         -|             STANDARD_AIR|
+------------------------------------------------------------------------------+
-- Fluid properties:
+------------------------------------------------------------------------------+
|                  Name|    Dim. value|    Ref. value|      Unit|Non-dim. value|
+------------------------------------------------------------------------------+
|          Gas Constant|       287.058|             1|  N.m/kg.K|       287.058|
|      Spec. Heat Ratio|             -|             -|         -|           1.4|
+------------------------------------------------------------------------------+
-- Initial and free-stream conditions:
+------------------------------------------------------------------------------+
|                  Name|    Dim. value|    Ref. value|      Unit|Non-dim. value|
+------------------------------------------------------------------------------+
|       Static Pressure|        101325|             1|        Pa|        101325|
|               Density|       1.22498|             1|    kg/m^3|       1.22498|
|           Temperature|        288.15|             1|         K|        288.15|
|          Total Energy|        209343|             1|   m^2/s^2|        209343|
|            Velocity-X|       71.4188|             1|       m/s|       71.4188|
|            Velocity-Y|             0|             1|       m/s|             0|
|            Velocity-Z|         2.494|             1|       m/s|         2.494|
|    Velocity Magnitude|       71.4624|             1|       m/s|       71.4624|
+------------------------------------------------------------------------------+
|           Mach Number|             -|             -|         -|          0.21|
+------------------------------------------------------------------------------+
Initialize Jacobian structure (Euler). MG level: 0.
Initialize Jacobian structure (Euler). MG level: 1.
Initialize Jacobian structure (Euler). MG level: 2.

------------------- Numerics Preprocessing ( Zone 0 ) -------------------

----------------- Integration Preprocessing ( Zone 0 ) ------------------

------------------- Iteration Preprocessing ( Zone 0 ) ------------------
Euler/Navier-Stokes/RANS fluid iteration.

------------------------------ Begin Solver -----------------------------

Simulation Run using the Single-zone Driver
+-------------------------------------------------------------------------------------------------------+
|  Inner_Iter|   Time_Iter|    rms[Rho]|   rms[RhoU]|   rms[RhoV]|   rms[RhoE]|          CL|          CD|
+-------------------------------------------------------------------------------------------------------+
|           0|           0|   -1.287781|    0.816523|    0.875520|    4.177689|    0.192203|    0.418442|
|           1|           0|   -1.401006|    0.735418|    0.785615|    4.065197|    0.335770|    0.709593|
|           2|           0|   -1.433554|    0.789330|    0.794313|    4.033221|    0.436595|    0.890393|
|           3|           0|   -1.420020|    0.877495|    0.846513|    4.046865|    0.503257|    0.980598|
|           4|           0|   -1.398336|    0.958042|    0.900989|    4.068482|    0.544149|    0.999359|
|           5|           0|   -1.381407|    1.027115|    0.947557|    4.085290|    0.566912|    0.964502|
|           6|           0|   -1.369411|    1.086692|    0.986307|    4.097052|    0.577805|    0.891792|
|           7|           0|   -1.359107|    1.138764|    1.019027|    4.106911|    0.581315|    0.794534|
|           8|           0|   -1.347729|    1.184594|    1.047636|    4.117591|    0.580593|    0.683663|
|           9|           0|   -1.334038|    1.225122|    1.073521|    4.130354|    0.577687|    0.567889|
|          10|           0|   -1.318409|    1.261125|    1.097860|    4.144900|    0.573710|    0.453756|
+-----------------------------------------------------------------------+
|        File Writing Summary       |              Filename             |
+-----------------------------------------------------------------------+
|SU2 restart                        |solution_flow.dat                  |
|Paraview                           |flow.vtu                           |
|Paraview surface                   |surface_flow.vtu                   |
+-----------------------------------------------------------------------+

Writing the forces breakdown file (forces_breakdown.dat).
+-------------------------------------------------------------------------------------------------------+
|  Inner_Iter|   Time_Iter|    rms[Rho]|   rms[RhoU]|   rms[RhoV]|   rms[RhoE]|          CL|          CD|
+-------------------------------------------------------------------------------------------------------+
|          11|           0|   -1.302010|    1.293213|    1.121535|    4.160134|    0.569145|    0.345866|
|          12|           0|   -1.286351|    1.321868|    1.144979|    4.174604|    0.563986|    0.247227|
|          13|           0|   -1.272562|    1.347294|    1.168182|    4.187226|    0.558051|    0.159557|
|          14|           0|   -1.261339|    1.369552|    1.190796|    4.197310|    0.550948|    0.083509|
|          15|           0|   -1.252647|    1.388386|    1.212183|    4.204890|    0.542165|    0.018982|
|          16|           0|   -1.246034|    1.403360|    1.231496|    4.210438|    0.531240|   -0.034600|
|          17|           0|   -1.240204|    1.414071|    1.247923|    4.215367|    0.517804|   -0.078078|
|          18|           0|   -1.233877|    1.420162|    1.260651|    4.221072|    0.501629|   -0.112405|
|          19|           0|   -1.225231|    1.421316|    1.268931|    4.229598|    0.482605|   -0.138561|
|          20|           0|   -1.212623|    1.417376|    1.272252|    4.242766|    0.460733|   -0.157491|
+-----------------------------------------------------------------------+
|        File Writing Summary       |              Filename             |
+-----------------------------------------------------------------------+
|SU2 restart                        |solution_flow.dat                  |
|Paraview                           |flow.vtu                           |
|Paraview surface                   |surface_flow.vtu                   |
+-----------------------------------------------------------------------+

Writing the forces breakdown file (forces_breakdown.dat).
+-------------------------------------------------------------------------------------------------------+
|  Inner_Iter|   Time_Iter|    rms[Rho]|   rms[RhoU]|   rms[RhoV]|   rms[RhoE]|          CL|          CD|
+-------------------------------------------------------------------------------------------------------+
|          21|           0|   -1.195361|    1.408430|    1.270328|    4.261281|    0.436164|   -0.170077|
|          22|           0|   -1.174059|    1.395428|    1.263660|    4.284401|    0.409166|   -0.177124|
|          23|           0|   -1.149930|    1.379816|    1.253427|    4.310716|    0.380159|   -0.179336|
|          24|           0|   -1.125311|    1.364067|    1.241260|    4.337595|    0.349717|   -0.177324|
|          25|           0|   -1.102622|    1.351724|    1.230694|    4.362317|    0.318470|   -0.171639|
|          26|           0|   -1.083874|    1.346949|    1.225792|    4.382715|    0.287062|   -0.162782|
|          27|           0|   -1.070491|    1.351809|    1.229418|    4.397275|    0.256188|   -0.151216|
|          28|           0|   -1.063393|    1.365695|    1.242153|    4.405028|    0.226516|   -0.137374|
|          29|           0|   -1.062905|    1.386052|    1.262563|    4.405483|    0.198692|   -0.121676|
|          30|           0|   -1.068410|    1.408321|    1.287244|    4.399160|    0.173346|   -0.104525|
+-----------------------------------------------------------------------+
|        File Writing Summary       |              Filename             |
+-----------------------------------------------------------------------+
|SU2 restart                        |solution_flow.dat                  |
|Paraview                           |flow.vtu                           |
|Paraview surface                   |surface_flow.vtu                   |
+-----------------------------------------------------------------------+

Writing the forces breakdown file (forces_breakdown.dat).
+-------------------------------------------------------------------------------------------------------+
|  Inner_Iter|   Time_Iter|    rms[Rho]|   rms[RhoU]|   rms[RhoV]|   rms[RhoE]|          CL|          CD|
+-------------------------------------------------------------------------------------------------------+
|          31|           0|   -1.078766|    1.429104|    1.312091|    4.387051|    0.151031|   -0.086319|
|          32|           0|   -1.090553|    1.446336|    1.333236|    4.372508|    0.132190|   -0.067453|
|          33|           0|   -1.100469|    1.458918|    1.348639|    4.359070|    0.117181|   -0.048309|
|          34|           0|   -1.103510|    1.466301|    1.357415|    4.352593|    0.106304|   -0.029256|
|          35|           0|   -1.095552|    1.469273|    1.360318|    4.358516|    0.099758|   -0.010648|
|          36|           0|   -1.077312|    1.470979|    1.359236|    4.377029|    0.097619|    0.007185|
|          37|           0|   -1.052726|    1.473477|    1.356332|    4.403952|    0.099887|    0.023946|
|          38|           0|   -1.027243|    1.479978|    1.356205|    4.433005|    0.106427|    0.039361|
|          39|           0|   -1.004789|    1.492503|    1.363843|    4.459444|    0.117015|    0.053202|
|          40|           0|   -0.988689|    1.511284|    1.381662|    4.479533|    0.131342|    0.065281|
+-----------------------------------------------------------------------+
|        File Writing Summary       |              Filename             |
+-----------------------------------------------------------------------+
|SU2 restart                        |solution_flow.dat                  |
|Paraview                           |flow.vtu                           |
|Paraview surface                   |surface_flow.vtu                   |
+-----------------------------------------------------------------------+

Writing the forces breakdown file (forces_breakdown.dat).
+-------------------------------------------------------------------------------------------------------+
|  Inner_Iter|   Time_Iter|    rms[Rho]|   rms[RhoU]|   rms[RhoV]|   rms[RhoE]|          CL|          CD|
+-------------------------------------------------------------------------------------------------------+
|          41|           0|   -0.981667|    1.534040|    1.407579|    4.490313|    0.149080|    0.075466|
|          42|           0|   -0.984740|    1.557778|    1.437688|    4.490844|    0.169801|    0.083660|
|          43|           0|   -0.997807|    1.579360|    1.467830|    4.481103|    0.193053|    0.089825|
|          44|           0|   -1.020828|    1.595846|    1.494214|    4.460826|    0.218286|    0.093951|
|          45|           0|   -1.051891|    1.605107|    1.513716|    4.431394|    0.244967|    0.096083|
|          46|           0|   -1.086338|    1.605825|    1.523798|    4.396551|    0.272526|    0.096307|
|          47|           0|   -1.114406|    1.596265|    1.523057|    4.364659|    0.300421|    0.094746|
|          48|           0|   -1.122094|    1.575491|    1.510134|    4.349730|    0.328091|    0.091555|
|          49|           0|   -1.102159|    1.543527|    1.483943|    4.362166|    0.355014|    0.086921|
|          50|           0|   -1.060929|    1.500476|    1.443114|    4.398908|    0.380674|    0.081051|
+-----------------------------------------------------------------------+
|        File Writing Summary       |              Filename             |
+-----------------------------------------------------------------------+
|SU2 restart                        |solution_flow.dat                  |
|Paraview                           |flow.vtu                           |
|Paraview surface                   |surface_flow.vtu                   |
+-----------------------------------------------------------------------+

Writing the forces breakdown file (forces_breakdown.dat).
+-------------------------------------------------------------------------------------------------------+
|  Inner_Iter|   Time_Iter|    rms[Rho]|   rms[RhoU]|   rms[RhoV]|   rms[RhoE]|          CL|          CD|
+-------------------------------------------------------------------------------------------------------+
|          51|           0|   -1.011494|    1.448325|    1.386181|    4.447349|    0.404616|    0.074173|
|          52|           0|   -0.964727|    1.391784|    1.312767|    4.495291|    0.426410|    0.066517|
|          53|           0|   -0.926330|    1.348223|    1.235077|    4.535860|    0.445716|    0.058327|
|          54|           0|   -0.898388|    1.340691|    1.190388|    4.566251|    0.462228|    0.049833|
|          55|           0|   -0.881838|    1.374700|    1.218866|    4.585211|    0.475723|    0.041260|
|          56|           0|   -0.877083|    1.430602|    1.298126|    4.592110|    0.486032|    0.032818|
|          57|           0|   -0.884501|    1.490324|    1.386340|    4.586434|    0.493091|    0.024704|
|          58|           0|   -0.903216|    1.543818|    1.465149|    4.569125|    0.496887|    0.017085|
|          59|           0|   -0.933183|    1.587595|    1.529087|    4.539995|    0.497506|    0.010110|
|          60|           0|   -0.974345|    1.620542|    1.578084|    4.498540|    0.495075|    0.003897|
+-----------------------------------------------------------------------+
|        File Writing Summary       |              Filename             |
+-----------------------------------------------------------------------+
|SU2 restart                        |solution_flow.dat                  |
|Paraview                           |flow.vtu                           |
|Paraview surface                   |surface_flow.vtu                   |
+-----------------------------------------------------------------------+

Writing the forces breakdown file (forces_breakdown.dat).
+-------------------------------------------------------------------------------------------------------+
|  Inner_Iter|   Time_Iter|    rms[Rho]|   rms[RhoU]|   rms[RhoV]|   rms[RhoE]|          CL|          CD|
+-------------------------------------------------------------------------------------------------------+
|          61|           0|   -1.024641|    1.643335|    1.612872|    4.445896|    0.489821|   -0.001460|
|          62|           0|   -1.078315|    1.655236|    1.634486|    4.386279|    0.481986|   -0.005897|
|          63|           0|   -1.124127|    1.656000|    1.644466|    4.329453|    0.471893|   -0.009379|
|          64|           0|   -1.144307|    1.646902|    1.643270|    4.295936|    0.459863|   -0.011899|
|          65|           0|   -1.130573|    1.627927|    1.630745|    4.301126|    0.446269|   -0.013475|
|          66|           0|   -1.090942|    1.598463|    1.606944|    4.340585|    0.431483|   -0.014148|
|          67|           0|   -1.041763|    1.558849|    1.571466|    4.394680|    0.415898|   -0.013979|
|          68|           0|   -0.995777|    1.509233|    1.523635|    4.446775|    0.399896|   -0.013041|
|          69|           0|   -0.958140|    1.449758|    1.462900|    4.489991|    0.383884|   -0.011423|
|          70|           0|   -0.930617|    1.386036|    1.390677|    4.522135|    0.368218|   -0.009221|
+-----------------------------------------------------------------------+
|        File Writing Summary       |              Filename             |
+-----------------------------------------------------------------------+
|SU2 restart                        |solution_flow.dat                  |
|Paraview                           |flow.vtu                           |
|Paraview surface                   |surface_flow.vtu                   |
+-----------------------------------------------------------------------+

Writing the forces breakdown file (forces_breakdown.dat).
+-------------------------------------------------------------------------------------------------------+
|  Inner_Iter|   Time_Iter|    rms[Rho]|   rms[RhoU]|   rms[RhoV]|   rms[RhoE]|          CL|          CD|
+-------------------------------------------------------------------------------------------------------+
|          71|           0|   -0.913282|    1.326619|    1.309969|    4.543209|    0.353261|   -0.006536|
|          72|           0|   -0.906216|    1.287918|    1.234388|    4.553298|    0.339322|   -0.003478|
|          73|           0|   -0.908640|    1.283870|    1.190409|    4.553251|    0.326706|   -0.000149|
|          74|           0|   -0.920175|    1.310161|    1.200369|    4.543440|    0.315670|    0.003343|
|          75|           0|   -0.939904|    1.351861|    1.251163|    4.524810|    0.306445|    0.006902|
|          76|           0|   -0.967570|    1.395748|    1.313478|    4.497429|    0.299188|    0.010433|
|          77|           0|   -1.001669|    1.434551|    1.370898|    4.462453|    0.294035|    0.013856|
|          78|           0|   -1.040514|    1.465502|    1.417848|    4.421022|    0.291033|    0.017093|
|          79|           0|   -1.080203|    1.488739|    1.453187|    4.376530|    0.290208|    0.020083|
|          80|           0|   -1.116114|    1.503712|    1.477753|    4.333301|    0.291519|    0.022771|
+-----------------------------------------------------------------------+
|        File Writing Summary       |              Filename             |
+-----------------------------------------------------------------------+
|SU2 restart                        |solution_flow.dat                  |
|Paraview                           |flow.vtu                           |
|Paraview surface                   |surface_flow.vtu                   |
+-----------------------------------------------------------------------+

Writing the forces breakdown file (forces_breakdown.dat).
+-------------------------------------------------------------------------------------------------------+
|  Inner_Iter|   Time_Iter|    rms[Rho]|   rms[RhoU]|   rms[RhoV]|   rms[RhoE]|          CL|          CD|
+-------------------------------------------------------------------------------------------------------+
|          81|           0|   -1.143112|    1.510974|    1.492741|    4.297014|    0.294915|    0.025120|
|          82|           0|   -1.156399|    1.510998|    1.498979|    4.274767|    0.300264|    0.027098|
|          83|           0|   -1.155995|    1.504018|    1.496161|    4.269068|    0.307433|    0.028689|
|          84|           0|   -1.145316|    1.491574|    1.485726|    4.277715|    0.316212|    0.029882|
|          85|           0|   -1.129452|    1.473449|    1.468259|    4.294931|    0.326409|    0.030683|
|          86|           0|   -1.112495|    1.450232|    1.444083|    4.315315|    0.337765|    0.031100|
|          87|           0|   -1.098327|    1.423125|    1.414457|    4.333717|    0.350043|    0.031156|
|          88|           0|   -1.088692|    1.392976|    1.380614|    4.347677|    0.362947|    0.030874|
|          89|           0|   -1.084909|    1.361625|    1.343411|    4.355538|    0.376213|    0.030288|
|          90|           0|   -1.086372|    1.330019|    1.305475|    4.357866|    0.389552|    0.029428|
+-----------------------------------------------------------------------+
|        File Writing Summary       |              Filename             |
+-----------------------------------------------------------------------+
|SU2 restart                        |solution_flow.dat                  |
|Paraview                           |flow.vtu                           |
|Paraview surface                   |surface_flow.vtu                   |
+-----------------------------------------------------------------------+

Writing the forces breakdown file (forces_breakdown.dat).
+-------------------------------------------------------------------------------------------------------+
|  Inner_Iter|   Time_Iter|    rms[Rho]|   rms[RhoU]|   rms[RhoV]|   rms[RhoE]|          CL|          CD|
+-------------------------------------------------------------------------------------------------------+
|          91|           0|   -1.093445|    1.300116|    1.268856|    4.354117|    0.402709|    0.028336|
|          92|           0|   -1.105358|    1.273484|    1.237735|    4.345135|    0.415412|    0.027048|
|          93|           0|   -1.122036|    1.251301|    1.215042|    4.330879|    0.427436|    0.025607|
|          94|           0|   -1.142323|    1.234433|    1.202558|    4.312541|    0.438550|    0.024052|
|          95|           0|   -1.165446|    1.223826|    1.200300|    4.290827|    0.448583|    0.022424|
|          96|           0|   -1.190064|    1.218895|    1.206886|    4.266933|    0.457353|    0.020758|
|          97|           0|   -1.215474|    1.218894|    1.218529|    4.241318|    0.464762|    0.019092|
|          98|           0|   -1.240831|    1.222118|    1.232512|    4.214659|    0.470710|    0.017454|
|          99|           0|   -1.264751|    1.226777|    1.246531|    4.188297|    0.475156|    0.015875|
|         100|           0|   -1.286318|    1.232225|    1.258852|    4.163298|    0.478077|    0.014378|
+-----------------------------------------------------------------------+
|        File Writing Summary       |              Filename             |
+-----------------------------------------------------------------------+
|SU2 restart                        |solution_flow.dat                  |
|Paraview                           |flow.vtu                           |
|Paraview surface                   |surface_flow.vtu                   |
+-----------------------------------------------------------------------+

Writing the forces breakdown file (forces_breakdown.dat).
+-------------------------------------------------------------------------------------------------------+
|  Inner_Iter|   Time_Iter|    rms[Rho]|   rms[RhoU]|   rms[RhoV]|   rms[RhoE]|          CL|          CD|
+-------------------------------------------------------------------------------------------------------+
|         101|           0|   -1.304761|    1.237576|    1.268618|    4.140640|    0.479497|    0.012987|
|         102|           0|   -1.320071|    1.241877|    1.275605|    4.120646|    0.479461|    0.011716|
|         103|           0|   -1.332552|    1.244549|    1.279541|    4.103535|    0.478065|    0.010583|
|         104|           0|   -1.342486|    1.245461|    1.280386|    4.089590|    0.475405|    0.009593|
|         105|           0|   -1.351255|    1.244423|    1.278075|    4.077617|    0.471626|    0.008756|
|         106|           0|   -1.359885|    1.241461|    1.272842|    4.066722|    0.466868|    0.008072|
|         107|           0|   -1.369211|    1.236566|    1.264969|    4.056174|    0.461316|    0.007547|
|         108|           0|   -1.380204|    1.229694|    1.254706|    4.044900|    0.455132|    0.007173|
|         109|           0|   -1.393052|    1.220726|    1.241930|    4.032725|    0.448520|    0.006952|
|         110|           0|   -1.407531|    1.209607|    1.226739|    4.019883|    0.441649|    0.006873|
+-----------------------------------------------------------------------+
|        File Writing Summary       |              Filename             |
+-----------------------------------------------------------------------+
|SU2 restart                        |solution_flow.dat                  |
|Paraview                           |flow.vtu                           |
|Paraview surface                   |surface_flow.vtu                   |
+-----------------------------------------------------------------------+

Writing the forces breakdown file (forces_breakdown.dat).
+-------------------------------------------------------------------------------------------------------+
|  Inner_Iter|   Time_Iter|    rms[Rho]|   rms[RhoU]|   rms[RhoV]|   rms[RhoE]|          CL|          CD|
+-------------------------------------------------------------------------------------------------------+
|         111|           0|   -1.423237|    1.196001|    1.209234|    4.006765|    0.434721|    0.006933|
|         112|           0|   -1.439919|    1.179858|    1.189657|    3.993454|    0.427894|    0.007117|
|         113|           0|   -1.456934|    1.161150|    1.168356|    3.980496|    0.421357|    0.007420|
|         114|           0|   -1.474018|    1.140036|    1.145783|    3.967917|    0.415241|    0.007825|
|         115|           0|   -1.490495|    1.116858|    1.122406|    3.956159|    0.409706|    0.008324|
|         116|           0|   -1.506310|    1.092000|    1.098956|    3.944897|    0.404842|    0.008900|
|         117|           0|   -1.521533|    1.065933|    1.076420|    3.933698|    0.400768|    0.009544|
|         118|           0|   -1.536073|    1.039664|    1.055567|    3.922478|    0.397531|    0.010238|
|         119|           0|   -1.550349|    1.014288|    1.037396|    3.910619|    0.395210|    0.010973|
|         120|           0|   -1.564596|    0.990829|    1.022726|    3.897787|    0.393810|    0.011730|
+-----------------------------------------------------------------------+
|        File Writing Summary       |              Filename             |
+-----------------------------------------------------------------------+
|SU2 restart                        |solution_flow.dat                  |
|Paraview                           |flow.vtu                           |
|Paraview surface                   |surface_flow.vtu                   |
+-----------------------------------------------------------------------+

Writing the forces breakdown file (forces_breakdown.dat).
+-------------------------------------------------------------------------------------------------------+
|  Inner_Iter|   Time_Iter|    rms[Rho]|   rms[RhoU]|   rms[RhoV]|   rms[RhoE]|          CL|          CD|
+-------------------------------------------------------------------------------------------------------+
|         121|           0|   -1.579368|    0.970511|    1.012211|    3.883450|    0.393361|    0.012501|
|         122|           0|   -1.595315|    0.954715|    1.006097|    3.866957|    0.393829|    0.013267|
|         123|           0|   -1.612443|    0.944462|    1.004167|    3.848336|    0.395201|    0.014023|
|         124|           0|   -1.631005|    0.939642|    1.005876|    3.827521|    0.397405|    0.014751|
|         125|           0|   -1.651376|    0.939251|    1.010284|    3.804144|    0.400394|    0.015445|
|         126|           0|   -1.673398|    0.942322|    1.016563|    3.778397|    0.404064|    0.016089|
|         127|           0|   -1.696898|    0.947636|    1.023650|    3.750531|    0.408347|    0.016678|
|         128|           0|   -1.721772|    0.953998|    1.030566|    3.720812|    0.413125|    0.017200|
|         129|           0|   -1.747993|    0.960355|    1.036839|    3.689354|    0.418310|    0.017652|
|         130|           0|   -1.775102|    0.965309|    1.042042|    3.656799|    0.423775|    0.018022|
+-----------------------------------------------------------------------+
|        File Writing Summary       |              Filename             |
+-----------------------------------------------------------------------+
|SU2 restart                        |solution_flow.dat                  |
|Paraview                           |flow.vtu                           |
|Paraview surface                   |surface_flow.vtu                   |
+-----------------------------------------------------------------------+

Writing the forces breakdown file (forces_breakdown.dat).
+-------------------------------------------------------------------------------------------------------+
|  Inner_Iter|   Time_Iter|    rms[Rho]|   rms[RhoU]|   rms[RhoV]|   rms[RhoE]|          CL|          CD|
+-------------------------------------------------------------------------------------------------------+
|         131|           0|   -1.802522|    0.968518|    1.045889|    3.624099|    0.429431|    0.018311|
|         132|           0|   -1.829849|    0.969508|    1.048175|    3.592022|    0.435155|    0.018508|
|         133|           0|   -1.855506|    0.968131|    1.048863|    3.562824|    0.440856|    0.018616|
|         134|           0|   -1.878669|    0.964271|    1.047883|    3.537913|    0.446424|    0.018629|
|         135|           0|   -1.898208|    0.957895|    1.045298|    3.518829|    0.451778|    0.018553|
|         136|           0|   -1.913309|    0.948768|    1.041230|    3.506382|    0.456824|    0.018382|
|         137|           0|   -1.924610|    0.937012|    1.035799|    3.499481|    0.461502|    0.018126|
|         138|           0|   -1.932733|    0.922992|    1.029153|    3.496837|    0.465732|    0.017784|
|         139|           0|   -1.938289|    0.906971|    1.021548|    3.497091|    0.469486|    0.017366|
|         140|           0|   -1.941759|    0.889192|    1.013224|    3.499278|    0.472705|    0.016875|
+-----------------------------------------------------------------------+
|        File Writing Summary       |              Filename             |
+-----------------------------------------------------------------------+
|SU2 restart                        |solution_flow.dat                  |
|Paraview                           |flow.vtu                           |
|Paraview surface                   |surface_flow.vtu                   |
+-----------------------------------------------------------------------+

Writing the forces breakdown file (forces_breakdown.dat).
+-------------------------------------------------------------------------------------------------------+
|  Inner_Iter|   Time_Iter|    rms[Rho]|   rms[RhoU]|   rms[RhoV]|   rms[RhoE]|          CL|          CD|
+-------------------------------------------------------------------------------------------------------+
|         141|           0|   -1.944160|    0.869471|    1.004441|    3.501909|    0.475379|    0.016322|
|         142|           0|   -1.946529|    0.848334|    0.995517|    3.503791|    0.477476|    0.015714|
|         143|           0|   -1.949800|    0.826649|    0.986677|    3.503960|    0.479018|    0.015064|
|         144|           0|   -1.954301|    0.804983|    0.978122|    3.502104|    0.479999|    0.014378|
|         145|           0|   -1.960490|    0.784297|    0.970045|    3.497925|    0.480462|    0.013673|
|         146|           0|   -1.968602|    0.765491|    0.962543|    3.491292|    0.480421|    0.012956|
|         147|           0|   -1.978746|    0.749336|    0.955739|    3.482243|    0.479932|    0.012243|
|         148|           0|   -1.990885|    0.736596|    0.949703|    3.470857|    0.479019|    0.011541|
|         149|           0|   -2.005292|    0.727584|    0.944392|    3.456934|    0.477752|    0.010866|
|         150|           0|   -2.021810|    0.722480|    0.939789|    3.440730|    0.476166|    0.010225|
+-----------------------------------------------------------------------+
|        File Writing Summary       |              Filename             |
+-----------------------------------------------------------------------+
|SU2 restart                        |solution_flow.dat                  |
|Paraview                           |flow.vtu                           |
|Paraview surface                   |surface_flow.vtu                   |
+-----------------------------------------------------------------------+

Writing the forces breakdown file (forces_breakdown.dat).
+-------------------------------------------------------------------------------------------------------+
|  Inner_Iter|   Time_Iter|    rms[Rho]|   rms[RhoU]|   rms[RhoV]|   rms[RhoE]|          CL|          CD|
+-------------------------------------------------------------------------------------------------------+
|         151|           0|   -2.040221|    0.721081|    0.935780|    3.422549|    0.474342|    0.009633|
|         152|           0|   -2.060320|    0.722861|    0.932256|    3.402577|    0.472319|    0.009093|
|         153|           0|   -2.082096|    0.727107|    0.929087|    3.380751|    0.470183|    0.008618|
|         154|           0|   -2.105173|    0.733122|    0.926118|    3.357418|    0.467969|    0.008212|
|         155|           0|   -2.128938|    0.740214|    0.923181|    3.333087|    0.465762|    0.007885|
|         156|           0|   -2.152850|    0.747759|    0.920167|    3.308150|    0.463589|    0.007636|
|         157|           0|   -2.176170|    0.755291|    0.916954|    3.283263|    0.461524|    0.007472|
|         158|           0|   -2.198168|    0.762516|    0.913452|    3.259094|    0.459590|    0.007390|
|         159|           0|   -2.218224|    0.769120|    0.909583|    3.236099|    0.457854|    0.007395|
|         160|           0|   -2.235334|    0.774922|    0.905328|    3.215270|    0.456325|    0.007477|
+-----------------------------------------------------------------------+
|        File Writing Summary       |              Filename             |
+-----------------------------------------------------------------------+
|SU2 restart                        |solution_flow.dat                  |
|Paraview                           |flow.vtu                           |
|Paraview surface                   |surface_flow.vtu                   |
+-----------------------------------------------------------------------+

Writing the forces breakdown file (forces_breakdown.dat).
+-------------------------------------------------------------------------------------------------------+
|  Inner_Iter|   Time_Iter|    rms[Rho]|   rms[RhoU]|   rms[RhoV]|   rms[RhoE]|          CL|          CD|
+-------------------------------------------------------------------------------------------------------+
|         161|           0|   -2.248900|    0.779793|    0.900680|    3.197490|    0.455067|    0.007639|
|         162|           0|   -2.258823|    0.783690|    0.895618|    3.183050|    0.454077|    0.007868|
|         163|           0|   -2.264749|    0.786608|    0.890113|    3.172783|    0.453395|    0.008164|
|         164|           0|   -2.267122|    0.788560|    0.884177|    3.166776|    0.453003|    0.008514|
|         165|           0|   -2.266057|    0.789610|    0.877772|    3.165151|    0.452930|    0.008914|
|         166|           0|   -2.262055|    0.789810|    0.870959|    3.167589|    0.453143|    0.009349|
|         167|           0|   -2.256161|    0.789276|    0.863799|    3.173110|    0.453663|    0.009814|
|         168|           0|   -2.249009|    0.788083|    0.856219|    3.180945|    0.454448|    0.010293|
|         169|           0|   -2.241217|    0.786433|    0.848300|    3.190367|    0.455503|    0.010782|
|         170|           0|   -2.233569|    0.784332|    0.840077|    3.200117|    0.456777|    0.011264|
+-----------------------------------------------------------------------+
|        File Writing Summary       |              Filename             |
+-----------------------------------------------------------------------+
|SU2 restart                        |solution_flow.dat                  |
|Paraview                           |flow.vtu                           |
|Paraview surface                   |surface_flow.vtu                   |
+-----------------------------------------------------------------------+

Writing the forces breakdown file (forces_breakdown.dat).
+-------------------------------------------------------------------------------------------------------+
|  Inner_Iter|   Time_Iter|    rms[Rho]|   rms[RhoU]|   rms[RhoV]|   rms[RhoE]|          CL|          CD|
+-------------------------------------------------------------------------------------------------------+
|         171|           0|   -2.227143|    0.781907|    0.831586|    3.208879|    0.458273|    0.011734|
|         172|           0|   -2.221793|    0.779355|    0.822882|    3.216725|    0.459933|    0.012177|
|         173|           0|   -2.218137|    0.776803|    0.814060|    3.223048|    0.461754|    0.012590|
|         174|           0|   -2.216614|    0.774325|    0.805171|    3.227239|    0.463680|    0.012960|
|         175|           0|   -2.216847|    0.772079|    0.796272|    3.229761|    0.465703|    0.013284|
|         176|           0|   -2.218909|    0.770158|    0.787413|    3.230500|    0.467764|    0.013553|
|         177|           0|   -2.222381|    0.768585|    0.778620|    3.229742|    0.469854|    0.013766|
|         178|           0|   -2.227426|    0.767398|    0.769922|    3.227269|    0.471915|    0.013916|
|         179|           0|   -2.233717|    0.766668|    0.761344|    3.223605|    0.473940|    0.014007|
|         180|           0|   -2.240707|    0.766449|    0.752858|    3.219306|    0.475877|    0.014033|
+-----------------------------------------------------------------------+
|        File Writing Summary       |              Filename             |
+-----------------------------------------------------------------------+
|SU2 restart                        |solution_flow.dat                  |
|Paraview                           |flow.vtu                           |
|Paraview surface                   |surface_flow.vtu                   |
+-----------------------------------------------------------------------+

Writing the forces breakdown file (forces_breakdown.dat).
+-------------------------------------------------------------------------------------------------------+
|  Inner_Iter|   Time_Iter|    rms[Rho]|   rms[RhoU]|   rms[RhoV]|   rms[RhoE]|          CL|          CD|
+-------------------------------------------------------------------------------------------------------+
|         181|           0|   -2.247975|    0.766678|    0.744417|    3.214670|    0.477720|    0.014000|
|         182|           0|   -2.254783|    0.767141|    0.736127|    3.210301|    0.479425|    0.013907|
|         183|           0|   -2.260538|    0.767895|    0.728101|    3.206818|    0.480994|    0.013762|
|         184|           0|   -2.264347|    0.768942|    0.720141|    3.204717|    0.482388|    0.013564|
|         185|           0|   -2.266883|    0.770305|    0.712631|    3.203784|    0.483618|    0.013325|
|         186|           0|   -2.267782|    0.771848|    0.705275|    3.204025|    0.484654|    0.013045|
|         187|           0|   -2.267350|    0.773269|    0.698024|    3.204872|    0.485513|    0.012738|
|         188|           0|   -2.267042|    0.774156|    0.690978|    3.204502|    0.486175|    0.012405|
|         189|           0|   -2.265887|    0.774904|    0.684172|    3.204108|    0.486667|    0.012060|
|         190|           0|   -2.263932|    0.775668|    0.677685|    3.203999|    0.486972|    0.011706|
+-----------------------------------------------------------------------+
|        File Writing Summary       |              Filename             |
+-----------------------------------------------------------------------+
|SU2 restart                        |solution_flow.dat                  |
|Paraview                           |flow.vtu                           |
|Paraview surface                   |surface_flow.vtu                   |
+-----------------------------------------------------------------------+

Writing the forces breakdown file (forces_breakdown.dat).
+-------------------------------------------------------------------------------------------------------+
|  Inner_Iter|   Time_Iter|    rms[Rho]|   rms[RhoU]|   rms[RhoV]|   rms[RhoE]|          CL|          CD|
+-------------------------------------------------------------------------------------------------------+
|         191|           0|   -2.261983|    0.776447|    0.671551|    3.203546|    0.487124|    0.011355|
|         192|           0|   -2.260142|    0.777179|    0.665778|    3.202757|    0.487113|    0.011009|
|         193|           0|   -2.259209|    0.777715|    0.660332|    3.200953|    0.486979|    0.010681|
|         194|           0|   -2.259603|    0.778151|    0.655040|    3.197975|    0.486712|    0.010371|
|         195|           0|   -2.262247|    0.778171|    0.649765|    3.192892|    0.486355|    0.010089|
|         196|           0|   -2.266906|    0.777495|    0.644379|    3.185696|    0.485908|    0.009836|
|         197|           0|   -2.272727|    0.776402|    0.638540|    3.177609|    0.485413|    0.009620|
|         198|           0|   -2.280017|    0.774482|    0.632142|    3.168062|    0.484866|    0.009439|
|         199|           0|   -2.287637|    0.771976|    0.625095|    3.158691|    0.484317|    0.009298|
|         200|           0|   -2.294983|    0.768803|    0.617197|    3.150407|    0.483757|    0.009194|
+-----------------------------------------------------------------------+
|        File Writing Summary       |              Filename             |
+-----------------------------------------------------------------------+
|SU2 restart                        |solution_flow.dat                  |
|Paraview                           |flow.vtu                           |
|Paraview surface                   |surface_flow.vtu                   |
+-----------------------------------------------------------------------+

Writing the forces breakdown file (forces_breakdown.dat).
+-------------------------------------------------------------------------------------------------------+
|  Inner_Iter|   Time_Iter|    rms[Rho]|   rms[RhoU]|   rms[RhoV]|   rms[RhoE]|          CL|          CD|
+-------------------------------------------------------------------------------------------------------+
|         201|           0|   -2.301572|    0.765042|    0.608195|    3.143957|    0.483230|    0.009129|
|         202|           0|   -2.307402|    0.760620|    0.597893|    3.139411|    0.482728|    0.009100|
|         203|           0|   -2.311549|    0.755412|    0.586136|    3.137669|    0.482290|    0.009107|
|         204|           0|   -2.313797|    0.749349|    0.572948|    3.138641|    0.481903|    0.009142|
|         205|           0|   -2.313626|    0.742613|    0.558323|    3.142568|    0.481607|    0.009208|
|         206|           0|   -2.310957|    0.735273|    0.542283|    3.149197|    0.481383|    0.009295|
|         207|           0|   -2.306662|    0.727327|    0.524927|    3.157316|    0.481264|    0.009403|
|         208|           0|   -2.301047|    0.718807|    0.506451|    3.166195|    0.481234|    0.009522|
|         209|           0|   -2.294616|    0.709891|    0.487288|    3.175295|    0.481313|    0.009653|
|         210|           0|   -2.288190|    0.700872|    0.468024|    3.183771|    0.481478|    0.009786|
+-----------------------------------------------------------------------+
|        File Writing Summary       |              Filename             |
+-----------------------------------------------------------------------+
|SU2 restart                        |solution_flow.dat                  |
|Paraview                           |flow.vtu                           |
|Paraview surface                   |surface_flow.vtu                   |
+-----------------------------------------------------------------------+

Writing the forces breakdown file (forces_breakdown.dat).
+-------------------------------------------------------------------------------------------------------+
|  Inner_Iter|   Time_Iter|    rms[Rho]|   rms[RhoU]|   rms[RhoV]|   rms[RhoE]|          CL|          CD|
+-------------------------------------------------------------------------------------------------------+
|         211|           0|   -2.282582|    0.691848|    0.449373|    3.190891|    0.481751|    0.009921|
|         212|           0|   -2.278448|    0.683106|    0.432068|    3.195930|    0.482103|    0.010048|
|         213|           0|   -2.276070|    0.674933|    0.416975|    3.198744|    0.482550|    0.010168|
|         214|           0|   -2.275872|    0.667552|    0.404866|    3.199023|    0.483061|    0.010272|
|         215|           0|   -2.277826|    0.661088|    0.396213|    3.196810|    0.483650|    0.010363|
|         216|           0|   -2.281983|    0.655687|    0.391176|    3.192158|    0.484280|    0.010432|
|         217|           0|   -2.289243|    0.651372|    0.389472|    3.184216|    0.484965|    0.010484|
|         218|           0|   -2.299345|    0.647877|    0.390505|    3.173090|    0.485668|    0.010511|
|         219|           0|   -2.312014|    0.645158|    0.393525|    3.159137|    0.486400|    0.010519|
|         220|           0|   -2.326747|    0.642851|    0.397586|    3.142675|    0.487127|    0.010502|
+-----------------------------------------------------------------------+
|        File Writing Summary       |              Filename             |
+-----------------------------------------------------------------------+
|SU2 restart                        |solution_flow.dat                  |
|Paraview                           |flow.vtu                           |
|Paraview surface                   |surface_flow.vtu                   |
+-----------------------------------------------------------------------+

Writing the forces breakdown file (forces_breakdown.dat).
+-------------------------------------------------------------------------------------------------------+
|  Inner_Iter|   Time_Iter|    rms[Rho]|   rms[RhoU]|   rms[RhoV]|   rms[RhoE]|          CL|          CD|
+-------------------------------------------------------------------------------------------------------+
|         221|           0|   -2.343336|    0.640698|    0.401815|    3.123904|    0.487857|    0.010467|
|         222|           0|   -2.361078|    0.638433|    0.405410|    3.103513|    0.488558|    0.010409|
|         223|           0|   -2.379284|    0.635833|    0.407681|    3.082240|    0.489243|    0.010337|
|         224|           0|   -2.396928|    0.632670|    0.408104|    3.061257|    0.489879|    0.010247|
|         225|           0|   -2.412901|    0.628702|    0.406261|    3.041872|    0.490481|    0.010148|
|         226|           0|   -2.426093|    0.623733|    0.401759|    3.025528|    0.491015|    0.010037|
|         227|           0|   -2.435519|    0.618235|    0.394547|    3.013420|    0.491502|    0.009924|
|         228|           0|   -2.440193|    0.611992|    0.384470|    3.007467|    0.491913|    0.009806|
|         229|           0|   -2.440399|    0.603822|    0.371034|    3.006928|    0.492268|    0.009692|
|         230|           0|   -2.436742|    0.593874|    0.354121|    3.011266|    0.492539|    0.009580|
+-----------------------------------------------------------------------+
|        File Writing Summary       |              Filename             |
+-----------------------------------------------------------------------+
|SU2 restart                        |solution_flow.dat                  |
|Paraview                           |flow.vtu                           |
|Paraview surface                   |surface_flow.vtu                   |
+-----------------------------------------------------------------------+

Writing the forces breakdown file (forces_breakdown.dat).
+-------------------------------------------------------------------------------------------------------+
|  Inner_Iter|   Time_Iter|    rms[Rho]|   rms[RhoU]|   rms[RhoV]|   rms[RhoE]|          CL|          CD|
+-------------------------------------------------------------------------------------------------------+
|         231|           0|   -2.429906|    0.582447|    0.333742|    3.019704|    0.492754|    0.009480|
|         232|           0|   -2.421113|    0.569678|    0.310012|    3.030730|    0.492890|    0.009387|
|         233|           0|   -2.411224|    0.555805|    0.283106|    3.043242|    0.492975|    0.009311|
|         234|           0|   -2.401315|    0.541078|    0.253439|    3.055935|    0.492989|    0.009247|
|         235|           0|   -2.392343|    0.525904|    0.221684|    3.067664|    0.492965|    0.009203|
|         236|           0|   -2.385070|    0.510637|    0.189021|    3.077483|    0.492883|    0.009174|
|         237|           0|   -2.380227|    0.495638|    0.157257|    3.084550|    0.492777|    0.009166|
|         238|           0|   -2.378101|    0.481302|    0.128983|    3.088619|    0.492631|    0.009174|
|         239|           0|   -2.379006|    0.467976|    0.107030|    3.089326|    0.492477|    0.009204|
|         240|           0|   -2.383019|    0.456037|    0.093847|    3.086675|    0.492297|    0.009248|
+-----------------------------------------------------------------------+
|        File Writing Summary       |              Filename             |
+-----------------------------------------------------------------------+
|SU2 restart                        |solution_flow.dat                  |
|Paraview                           |flow.vtu                           |
|Paraview surface                   |surface_flow.vtu                   |
+-----------------------------------------------------------------------+

Writing the forces breakdown file (forces_breakdown.dat).
+-------------------------------------------------------------------------------------------------------+
|  Inner_Iter|   Time_Iter|    rms[Rho]|   rms[RhoU]|   rms[RhoV]|   rms[RhoE]|          CL|          CD|
+-------------------------------------------------------------------------------------------------------+
|         241|           0|   -2.390313|    0.445742|    0.090972|    3.080415|    0.492126|    0.009310|
|         242|           0|   -2.400738|    0.437254|    0.097727|    3.070734|    0.491946|    0.009384|
|         243|           0|   -2.414104|    0.430601|    0.111886|    3.057738|    0.491794|    0.009472|
|         244|           0|   -2.430327|    0.425507|    0.130512|    3.041368|    0.491652|    0.009567|
|         245|           0|   -2.449098|    0.421675|    0.150885|    3.021811|    0.491553|    0.009672|
|         246|           0|   -2.469945|    0.418738|    0.170915|    2.999468|    0.491477|    0.009778|
|         247|           0|   -2.492302|    0.416281|    0.189098|    2.974796|    0.491455|    0.009887|
|         248|           0|   -2.515112|    0.413929|    0.204514|    2.948763|    0.491467|    0.009990|
|         249|           0|   -2.537232|    0.411354|    0.216649|    2.922558|    0.491539|    0.010092|
|         250|           0|   -2.557396|    0.408252|    0.225216|    2.897593|    0.491649|    0.010182|
+-----------------------------------------------------------------------+
|        File Writing Summary       |              Filename             |
+-----------------------------------------------------------------------+
|SU2 restart                        |solution_flow.dat                  |
|Paraview                           |flow.vtu                           |
|Paraview surface                   |surface_flow.vtu                   |
+-----------------------------------------------------------------------+

Writing the forces breakdown file (forces_breakdown.dat).
+-------------------------------------------------------------------------------------------------------+
|  Inner_Iter|   Time_Iter|    rms[Rho]|   rms[RhoU]|   rms[RhoV]|   rms[RhoE]|          CL|          CD|
+-------------------------------------------------------------------------------------------------------+
|         251|           0|   -2.574034|    0.404258|    0.230029|    2.875826|    0.491822|    0.010264|
|         252|           0|   -2.585845|    0.399096|    0.231006|    2.859139|    0.492035|    0.010329|
|         253|           0|   -2.592162|    0.392544|    0.228100|    2.848885|    0.492309|    0.010383|
|         254|           0|   -2.592896|    0.384617|    0.221321|    2.845798|    0.492618|    0.010417|
|         255|           0|   -2.588882|    0.375215|    0.210674|    2.849164|    0.492981|    0.010437|
|         256|           0|   -2.581405|    0.364378|    0.196164|    2.857539|    0.493368|    0.010435|
|         257|           0|   -2.571820|    0.352141|    0.177844|    2.869211|    0.493799|    0.010417|
|         258|           0|   -2.561555|    0.338636|    0.155721|    2.882298|    0.494244|    0.010377|
|         259|           0|   -2.551749|    0.324089|    0.129914|    2.895325|    0.494720|    0.010321|
|         260|           0|   -2.543302|    0.308794|    0.100578|    2.907106|    0.495194|    0.010246|
+-----------------------------------------------------------------------+
|        File Writing Summary       |              Filename             |
+-----------------------------------------------------------------------+
|SU2 restart                        |solution_flow.dat                  |
|Paraview                           |flow.vtu                           |
|Paraview surface                   |surface_flow.vtu                   |
+-----------------------------------------------------------------------+

Writing the forces breakdown file (forces_breakdown.dat).
+-------------------------------------------------------------------------------------------------------+
|  Inner_Iter|   Time_Iter|    rms[Rho]|   rms[RhoU]|   rms[RhoV]|   rms[RhoE]|          CL|          CD|
+-------------------------------------------------------------------------------------------------------+
|         261|           0|   -2.536816|    0.293170|    0.068026|    2.916889|    0.495684|    0.010156|
|         262|           0|   -2.532753|    0.277671|    0.032865|    2.924129|    0.496158|    0.010050|
|         263|           0|   -2.531481|    0.262796|   -0.003952|    2.928388|    0.496631|    0.009933|
|         264|           0|   -2.533105|    0.248987|   -0.040985|    2.929532|    0.497074|    0.009803|
|         265|           0|   -2.537761|    0.236726|   -0.075949|    2.927351|    0.497508|    0.009667|
|         266|           0|   -2.545430|    0.226415|   -0.105904|    2.921851|    0.497900|    0.009522|
|         267|           0|   -2.556094|    0.218253|   -0.127887|    2.912984|    0.498270|    0.009376|
|         268|           0|   -2.569831|    0.212285|   -0.139981|    2.900595|    0.498587|    0.009227|
|         269|           0|   -2.586577|    0.208386|   -0.141915|    2.884715|    0.498872|    0.009083|
|         270|           0|   -2.605772|    0.206271|   -0.135201|    2.865809|    0.499099|    0.008941|
+-----------------------------------------------------------------------+
|        File Writing Summary       |              Filename             |
+-----------------------------------------------------------------------+
|SU2 restart                        |solution_flow.dat                  |
|Paraview                           |flow.vtu                           |
|Paraview surface                   |surface_flow.vtu                   |
+-----------------------------------------------------------------------+

Writing the forces breakdown file (forces_breakdown.dat).
+-------------------------------------------------------------------------------------------------------+
|  Inner_Iter|   Time_Iter|    rms[Rho]|   rms[RhoU]|   rms[RhoV]|   rms[RhoE]|          CL|          CD|
+-------------------------------------------------------------------------------------------------------+
|         271|           0|   -2.626998|    0.205494|   -0.122615|    2.844156|    0.499287|    0.008810|
|         272|           0|   -2.649711|    0.205587|   -0.107021|    2.820132|    0.499413|    0.008684|
|         273|           0|   -2.673144|    0.206078|   -0.090785|    2.794316|    0.499501|    0.008573|
|         274|           0|   -2.696512|    0.206533|   -0.075589|    2.767306|    0.499527|    0.008472|
|         275|           0|   -2.718772|    0.206539|   -0.062512|    2.740008|    0.499514|    0.008389|
|         276|           0|   -2.738439|    0.205817|   -0.052175|    2.714032|    0.499444|    0.008318|
|         277|           0|   -2.754749|    0.204172|   -0.044897|    2.690450|    0.499343|    0.008266|
|         278|           0|   -2.766943|    0.201371|   -0.040844|    2.670576|    0.499195|    0.008229|
|         279|           0|   -2.774358|    0.197239|   -0.040066|    2.655882|    0.499028|    0.008212|
|         280|           0|   -2.777389|    0.191716|   -0.042502|    2.646732|    0.498826|    0.008209|
+-----------------------------------------------------------------------+
|        File Writing Summary       |              Filename             |
+-----------------------------------------------------------------------+
|SU2 restart                        |solution_flow.dat                  |
|Paraview                           |flow.vtu                           |
|Paraview surface                   |surface_flow.vtu                   |
+-----------------------------------------------------------------------+

Writing the forces breakdown file (forces_breakdown.dat).
+-------------------------------------------------------------------------------------------------------+
|  Inner_Iter|   Time_Iter|    rms[Rho]|   rms[RhoU]|   rms[RhoV]|   rms[RhoE]|          CL|          CD|
+-------------------------------------------------------------------------------------------------------+
|         281|           0|   -2.777061|    0.184772|   -0.048084|    2.642638|    0.498616|    0.008226|
|         282|           0|   -2.773983|    0.176366|   -0.056674|    2.643221|    0.498385|    0.008254|
|         283|           0|   -2.769396|    0.166542|   -0.068148|    2.647088|    0.498157|    0.008301|
|         284|           0|   -2.764403|    0.155383|   -0.082306|    2.652827|    0.497922|    0.008357|
|         285|           0|   -2.759741|    0.142932|   -0.098982|    2.659368|    0.497704|    0.008429|
|         286|           0|   -2.756051|    0.129283|   -0.117878|    2.665744|    0.497491|    0.008507|
|         287|           0|   -2.753748|    0.114491|   -0.138552|    2.671236|    0.497306|    0.008596|
|         288|           0|   -2.753148|    0.098845|   -0.160539|    2.675327|    0.497139|    0.008688|
|         289|           0|   -2.754232|    0.082496|   -0.183197|    2.677937|    0.497009|    0.008788|
|         290|           0|   -2.757281|    0.065700|   -0.205828|    2.678658|    0.496906|    0.008888|
+-----------------------------------------------------------------------+
|        File Writing Summary       |              Filename             |
+-----------------------------------------------------------------------+
|SU2 restart                        |solution_flow.dat                  |
|Paraview                           |flow.vtu                           |
|Paraview surface                   |surface_flow.vtu                   |
+-----------------------------------------------------------------------+

Writing the forces breakdown file (forces_breakdown.dat).
+-------------------------------------------------------------------------------------------------------+
|  Inner_Iter|   Time_Iter|    rms[Rho]|   rms[RhoU]|   rms[RhoV]|   rms[RhoE]|          CL|          CD|
+-------------------------------------------------------------------------------------------------------+
|         291|           0|   -2.762411|    0.048743|   -0.227641|    2.677260|    0.496847|    0.008991|
|         292|           0|   -2.769397|    0.031885|   -0.247663|    2.673946|    0.496821|    0.009090|
|         293|           0|   -2.777943|    0.015424|   -0.264918|    2.668993|    0.496845|    0.009189|
|         294|           0|   -2.787917|   -0.000332|   -0.278618|    2.662463|    0.496904|    0.009279|
|         295|           0|   -2.799008|   -0.015061|   -0.288103|    2.654606|    0.497016|    0.009367|
|         296|           0|   -2.810839|   -0.028504|   -0.293123|    2.645743|    0.497164|    0.009443|
|         297|           0|   -2.823036|   -0.040400|   -0.293844|    2.636152|    0.497363|    0.009513|
|         298|           0|   -2.835103|   -0.050606|   -0.290810|    2.626219|    0.497592|    0.009570|
|         299|           0|   -2.846653|   -0.059013|   -0.284776|    2.616237|    0.497865|    0.009619|
|         300|           0|   -2.857167|   -0.065566|   -0.276578|    2.606647|    0.498162|    0.009653|
+-----------------------------------------------------------------------+
|        File Writing Summary       |              Filename             |
+-----------------------------------------------------------------------+
|SU2 restart                        |solution_flow.dat                  |
|Paraview                           |flow.vtu                           |
|Paraview surface                   |surface_flow.vtu                   |
+-----------------------------------------------------------------------+

Writing the forces breakdown file (forces_breakdown.dat).
+-------------------------------------------------------------------------------------------------------+
|  Inner_Iter|   Time_Iter|    rms[Rho]|   rms[RhoU]|   rms[RhoV]|   rms[RhoE]|          CL|          CD|
+-------------------------------------------------------------------------------------------------------+
|         301|           0|   -2.866413|   -0.070315|   -0.267020|    2.597612|    0.498493|    0.009679|
|         302|           0|   -2.874103|   -0.073371|   -0.256809|    2.589396|    0.498837|    0.009689|
|         303|           0|   -2.880178|   -0.074936|   -0.246485|    2.582091|    0.499206|    0.009692|
|         304|           0|   -2.884763|   -0.075206|   -0.236490|    2.575660|    0.499579|    0.009679|
|         305|           0|   -2.888000|   -0.074394|   -0.227127|    2.570061|    0.499967|    0.009659|
|         306|           0|   -2.890148|   -0.072719|   -0.218589|    2.565174|    0.500349|    0.009626|
|         307|           0|   -2.891521|   -0.070446|   -0.211033|    2.560823|    0.500734|    0.009585|
|         308|           0|   -2.892534|   -0.067797|   -0.204570|    2.556757|    0.501103|    0.009533|
|         309|           0|   -2.893422|   -0.064973|   -0.199289|    2.552868|    0.501464|    0.009477|
|         310|           0|   -2.894507|   -0.062227|   -0.195245|    2.548946|    0.501798|    0.009411|
+-----------------------------------------------------------------------+
|        File Writing Summary       |              Filename             |
+-----------------------------------------------------------------------+
|SU2 restart                        |solution_flow.dat                  |
|Paraview                           |flow.vtu                           |
|Paraview surface                   |surface_flow.vtu                   |
+-----------------------------------------------------------------------+

Writing the forces breakdown file (forces_breakdown.dat).
+-------------------------------------------------------------------------------------------------------+
|  Inner_Iter|   Time_Iter|    rms[Rho]|   rms[RhoU]|   rms[RhoV]|   rms[RhoE]|          CL|          CD|
+-------------------------------------------------------------------------------------------------------+
|         311|           0|   -2.895965|   -0.059683|   -0.192484|    2.544911|    0.502117|    0.009342|
|         312|           0|   -2.898115|   -0.057498|   -0.191061|    2.540531|    0.502403|    0.009266|
|         313|           0|   -2.900948|   -0.055812|   -0.190989|    2.535884|    0.502666|    0.009190|
|         314|           0|   -2.904465|   -0.054724|   -0.192324|    2.531050|    0.502892|    0.009108|
|         315|           0|   -2.908606|   -0.054298|   -0.195127|    2.526154|    0.503091|    0.009029|
|         316|           0|   -2.913386|   -0.054586|   -0.199429|    2.521209|    0.503249|    0.008947|
|         317|           0|   -2.918535|   -0.055668|   -0.205245|    2.516530|    0.503378|    0.008869|
|         318|           0|   -2.923937|   -0.057558|   -0.212614|    2.512265|    0.503466|    0.008791|
|         319|           0|   -2.929408|   -0.060277|   -0.221532|    2.508588|    0.503526|    0.008719|
|         320|           0|   -2.934783|   -0.063812|   -0.231989|    2.505608|    0.503545|    0.008648|
+-----------------------------------------------------------------------+
|        File Writing Summary       |              Filename             |
+-----------------------------------------------------------------------+
|SU2 restart                        |solution_flow.dat                  |
|Paraview                           |flow.vtu                           |
|Paraview surface                   |surface_flow.vtu                   |
+-----------------------------------------------------------------------+

Writing the forces breakdown file (forces_breakdown.dat).
+-------------------------------------------------------------------------------------------------------+
|  Inner_Iter|   Time_Iter|    rms[Rho]|   rms[RhoU]|   rms[RhoV]|   rms[RhoE]|          CL|          CD|
+-------------------------------------------------------------------------------------------------------+
|         321|           0|   -2.939858|   -0.068120|   -0.243905|    2.503422|    0.503539|    0.008585|
|         322|           0|   -2.944447|   -0.073130|   -0.257154|    2.502122|    0.503495|    0.008524|
|         323|           0|   -2.948439|   -0.078687|   -0.271568|    2.501672|    0.503434|    0.008472|
|         324|           0|   -2.951743|   -0.084626|   -0.286880|    2.501977|    0.503343|    0.008424|
|         325|           0|   -2.954416|   -0.090772|   -0.302700|    2.502787|    0.503243|    0.008385|
|         326|           0|   -2.956511|   -0.096917|   -0.318534|    2.503885|    0.503124|    0.008349|
|         327|           0|   -2.958110|   -0.102835|   -0.333725|    2.505038|    0.503000|    0.008324|
|         328|           0|   -2.959356|   -0.108316|   -0.347525|    2.505999|    0.502860|    0.008302|
|         329|           0|   -2.960419|   -0.113133|   -0.359096|    2.506513|    0.502724|    0.008291|
|         330|           0|   -2.961545|   -0.117123|   -0.367664|    2.506271|    0.502580|    0.008282|
+-----------------------------------------------------------------------+
|        File Writing Summary       |              Filename             |
+-----------------------------------------------------------------------+
|SU2 restart                        |solution_flow.dat                  |
|Paraview                           |flow.vtu                           |
|Paraview surface                   |surface_flow.vtu                   |
+-----------------------------------------------------------------------+

Writing the forces breakdown file (forces_breakdown.dat).
+-------------------------------------------------------------------------------------------------------+
|  Inner_Iter|   Time_Iter|    rms[Rho]|   rms[RhoU]|   rms[RhoV]|   rms[RhoE]|          CL|          CD|
+-------------------------------------------------------------------------------------------------------+
|         331|           0|   -2.962891|   -0.120147|   -0.372600|    2.505072|    0.502448|    0.008283|
|         332|           0|   -2.964709|   -0.122141|   -0.373635|    2.502668|    0.502315|    0.008287|
|         333|           0|   -2.967070|   -0.123085|   -0.370821|    2.498995|    0.502202|    0.008299|
|         334|           0|   -2.970153|   -0.123048|   -0.364581|    2.493901|    0.502094|    0.008313|
|         335|           0|   -2.974007|   -0.122204|   -0.355610|    2.487343|    0.502009|    0.008335|
|         336|           0|   -2.978672|   -0.120771|   -0.344744|    2.479334|    0.501935|    0.008357|
|         337|           0|   -2.984043|   -0.118992|   -0.332836|    2.470025|    0.501888|    0.008386|
|         338|           0|   -2.990099|   -0.117136|   -0.320717|    2.459518|    0.501853|    0.008414|
|         339|           0|   -2.996636|   -0.115475|   -0.309056|    2.448100|    0.501849|    0.008447|
|         340|           0|   -3.003469|   -0.114283|   -0.298424|    2.436107|    0.501860|    0.008479|
+-----------------------------------------------------------------------+
|        File Writing Summary       |              Filename             |
+-----------------------------------------------------------------------+
|SU2 restart                        |solution_flow.dat                  |
|Paraview                           |flow.vtu                           |
|Paraview surface                   |surface_flow.vtu                   |
+-----------------------------------------------------------------------+

Writing the forces breakdown file (forces_breakdown.dat).
+-------------------------------------------------------------------------------------------------------+
|  Inner_Iter|   Time_Iter|    rms[Rho]|   rms[RhoU]|   rms[RhoV]|   rms[RhoE]|          CL|          CD|
+-------------------------------------------------------------------------------------------------------+
|         341|           0|   -3.010389|   -0.113870|   -0.289261|    2.423917|    0.501904|    0.008514|
|         342|           0|   -3.017075|   -0.114447|   -0.281904|    2.412152|    0.501965|    0.008547|
|         343|           0|   -3.023247|   -0.116178|   -0.276590|    2.401397|    0.502055|    0.008583|
|         344|           0|   -3.028506|   -0.119250|   -0.273472|    2.392404|    0.502160|    0.008616|
[...]
|         905|           0|   -4.221731|   -2.114790|   -2.205733|    1.241620|    0.511100|    0.008000|
|         906|           0|   -4.213840|   -2.111826|   -2.204588|    1.249253|    0.511099|    0.007998|
|         907|           0|   -4.221250|   -2.116514|   -2.208004|    1.241870|    0.511106|    0.007999|
|         908|           0|   -4.216474|   -2.114428|   -2.209582|    1.246509|    0.511106|    0.007997|
|         909|           0|   -4.215485|   -2.112726|   -2.207535|    1.247387|    0.511113|    0.007998|
|         910|           0|   -4.213057|   -2.112634|   -2.207815|    1.249850|    0.511112|    0.007996|
+-----------------------------------------------------------------------+
|        File Writing Summary       |              Filename             |
+-----------------------------------------------------------------------+
|SU2 restart                        |solution_flow.dat                  |
|Paraview                           |flow.vtu                           |
|Paraview surface                   |surface_flow.vtu                   |
+-----------------------------------------------------------------------+

Writing the forces breakdown file (forces_breakdown.dat).
+-------------------------------------------------------------------------------------------------------+
|  Inner_Iter|   Time_Iter|    rms[Rho]|   rms[RhoU]|   rms[RhoV]|   rms[RhoE]|          CL|          CD|
+-------------------------------------------------------------------------------------------------------+
|         911|           0|   -4.207243|   -2.110443|   -2.192823|    1.255772|    0.511118|    0.007997|
|         912|           0|   -4.209960|   -2.111614|   -2.189776|    1.253054|    0.511115|    0.007995|
|         913|           0|   -4.210519|   -2.109040|   -2.201572|    1.252551|    0.511120|    0.007997|
|         914|           0|   -4.207867|   -2.105368|   -2.199929|    1.255735|    0.511119|    0.007995|
|         915|           0|   -4.196994|   -2.091698|   -2.176272|    1.268165|    0.511122|    0.007996|
|         916|           0|   -4.202094|   -2.086895|   -2.167276|    1.264626|    0.511118|    0.007995|
|         917|           0|   -4.203235|   -2.091532|   -2.178827|    1.262848|    0.511119|    0.007996|
|         918|           0|   -4.199584|   -2.098834|   -2.195781|    1.265595|    0.511115|    0.007995|
|         919|           0|   -4.196362|   -2.111240|   -2.190701|    1.268172|    0.511117|    0.007998|
|         920|           0|   -4.213897|   -2.132557|   -2.202581|    1.250087|    0.511113|    0.007996|
+-----------------------------------------------------------------------+
|        File Writing Summary       |              Filename             |
+-----------------------------------------------------------------------+
|SU2 restart                        |solution_flow.dat                  |
|Paraview                           |flow.vtu                           |
|Paraview surface                   |surface_flow.vtu                   |
+-----------------------------------------------------------------------+

Writing the forces breakdown file (forces_breakdown.dat).
+-------------------------------------------------------------------------------------------------------+
|  Inner_Iter|   Time_Iter|    rms[Rho]|   rms[RhoU]|   rms[RhoV]|   rms[RhoE]|          CL|          CD|
+-------------------------------------------------------------------------------------------------------+
|         921|           0|   -4.215731|   -2.138263|   -2.216397|    1.247851|    0.511115|    0.007998|
|         922|           0|   -4.211620|   -2.130037|   -2.224169|    1.251789|    0.511113|    0.007997|
|         923|           0|   -4.206989|   -2.136267|   -2.210689|    1.256110|    0.511116|    0.008000|
|         924|           0|   -4.224447|   -2.148384|   -2.227343|    1.238435|    0.511114|    0.007999|
|         925|           0|   -4.216768|   -2.144466|   -2.215265|    1.246135|    0.511118|    0.008001|
|         926|           0|   -4.213430|   -2.142814|   -2.203403|    1.249333|    0.511115|    0.007999|
|         927|           0|   -4.218323|   -2.143497|   -2.211811|    1.244656|    0.511118|    0.008001|
|         928|           0|   -4.216061|   -2.129087|   -2.206482|    1.248017|    0.511115|    0.008000|
|         929|           0|   -4.198948|   -2.101442|   -2.168561|    1.267063|    0.511118|    0.008002|
|         930|           0|   -4.204500|   -2.094248|   -2.161994|    1.262944|    0.511115|    0.008001|
+-----------------------------------------------------------------------+
|        File Writing Summary       |              Filename             |
+-----------------------------------------------------------------------+
|SU2 restart                        |solution_flow.dat                  |
|Paraview                           |flow.vtu                           |
|Paraview surface                   |surface_flow.vtu                   |
+-----------------------------------------------------------------------+

Writing the forces breakdown file (forces_breakdown.dat).
+-------------------------------------------------------------------------------------------------------+
|  Inner_Iter|   Time_Iter|    rms[Rho]|   rms[RhoU]|   rms[RhoV]|   rms[RhoE]|          CL|          CD|
+-------------------------------------------------------------------------------------------------------+
|         931|           0|   -4.213182|   -2.116124|   -2.189236|    1.253209|    0.511116|    0.008002|
|         932|           0|   -4.219391|   -2.129187|   -2.210340|    1.245809|    0.511109|    0.008000|
|         933|           0|   -4.218233|   -2.130662|   -2.216575|    1.245811|    0.511112|    0.008002|
|         934|           0|   -4.218653|   -2.142171|   -2.223986|    1.244785|    0.511111|    0.008000|
|         935|           0|   -4.221681|   -2.152240|   -2.230250|    1.241705|    0.511116|    0.008001|
|         936|           0|   -4.212352|   -2.147243|   -2.231412|    1.250937|    0.511116|    0.007999|
|         937|           0|   -4.211384|   -2.149410|   -2.221566|    1.251798|    0.511124|    0.008000|
|         938|           0|   -4.213569|   -2.152505|   -2.214605|    1.249492|    0.511123|    0.007998|
|         939|           0|   -4.218478|   -2.154760|   -2.227692|    1.244474|    0.511130|    0.007999|
|         940|           0|   -4.218888|   -2.154558|   -2.235956|    1.244108|    0.511130|    0.007997|
+-----------------------------------------------------------------------+
|        File Writing Summary       |              Filename             |
+-----------------------------------------------------------------------+
|SU2 restart                        |solution_flow.dat                  |
|Paraview                           |flow.vtu                           |
|Paraview surface                   |surface_flow.vtu                   |
+-----------------------------------------------------------------------+

Writing the forces breakdown file (forces_breakdown.dat).
+-------------------------------------------------------------------------------------------------------+
|  Inner_Iter|   Time_Iter|    rms[Rho]|   rms[RhoU]|   rms[RhoV]|   rms[RhoE]|          CL|          CD|
+-------------------------------------------------------------------------------------------------------+
|         941|           0|   -4.212132|   -2.154786|   -2.221063|    1.250860|    0.511136|    0.007999|
|         942|           0|   -4.216576|   -2.157439|   -2.224020|    1.246427|    0.511134|    0.007997|
|         943|           0|   -4.207222|   -2.149503|   -2.206805|    1.256042|    0.511139|    0.007998|
|         944|           0|   -4.204543|   -2.146754|   -2.195910|    1.258650|    0.511135|    0.007996|
|         945|           0|   -4.210538|   -2.147549|   -2.203672|    1.252783|    0.511137|    0.007997|
|         946|           0|   -4.209815|   -2.134816|   -2.200495|    1.254731|    0.511131|    0.007996|
|         947|           0|   -4.193473|   -2.106800|   -2.175446|    1.272978|    0.511131|    0.007997|
|         948|           0|   -4.197218|   -2.099510|   -2.174998|    1.269964|    0.511124|    0.007996|
|         949|           0|   -4.200419|   -2.116817|   -2.172772|    1.265593|    0.511126|    0.007998|
|         950|           0|   -4.207863|   -2.135575|   -2.180215|    1.257230|    0.511120|    0.007996|
+-----------------------------------------------------------------------+
|        File Writing Summary       |              Filename             |
+-----------------------------------------------------------------------+
|SU2 restart                        |solution_flow.dat                  |
|Paraview                           |flow.vtu                           |
|Paraview surface                   |surface_flow.vtu                   |
+-----------------------------------------------------------------------+

Writing the forces breakdown file (forces_breakdown.dat).
+-------------------------------------------------------------------------------------------------------+
|  Inner_Iter|   Time_Iter|    rms[Rho]|   rms[RhoU]|   rms[RhoV]|   rms[RhoE]|          CL|          CD|
+-------------------------------------------------------------------------------------------------------+
|         951|           0|   -4.213532|   -2.148994|   -2.200387|    1.250893|    0.511121|    0.007998|
|         952|           0|   -4.218218|   -2.150103|   -2.214100|    1.245930|    0.511120|    0.007997|
|         953|           0|   -4.212607|   -2.157016|   -2.200254|    1.251125|    0.511124|    0.007999|
|         954|           0|   -4.220750|   -2.167328|   -2.206878|    1.242527|    0.511121|    0.007998|
|         955|           0|   -4.223632|   -2.169616|   -2.221129|    1.239496|    0.511125|    0.007999|
|         956|           0|   -4.221163|   -2.161225|   -2.229607|    1.241782|    0.511124|    0.007998|
|         957|           0|   -4.222003|   -2.167179|   -2.225913|    1.240762|    0.511129|    0.008001|
|         958|           0|   -4.224062|   -2.167484|   -2.226255|    1.238726|    0.511126|    0.007999|
|         959|           0|   -4.222200|   -2.156292|   -2.219276|    1.241385|    0.511131|    0.008000|
|         960|           0|   -4.216729|   -2.136285|   -2.207000|    1.248231|    0.511126|    0.007999|
+-----------------------------------------------------------------------+
|        File Writing Summary       |              Filename             |
+-----------------------------------------------------------------------+
|SU2 restart                        |solution_flow.dat                  |
|Paraview                           |flow.vtu                           |
|Paraview surface                   |surface_flow.vtu                   |
+-----------------------------------------------------------------------+

Writing the forces breakdown file (forces_breakdown.dat).
+-------------------------------------------------------------------------------------------------------+
|  Inner_Iter|   Time_Iter|    rms[Rho]|   rms[RhoU]|   rms[RhoV]|   rms[RhoE]|          CL|          CD|
+-------------------------------------------------------------------------------------------------------+
|         961|           0|   -4.200474|   -2.095681|   -2.178683|    1.267106|    0.511131|    0.008001|
|         962|           0|   -4.202934|   -2.116252|   -2.195844|    1.263395|    0.511128|    0.007999|
|         963|           0|   -4.205948|   -2.132367|   -2.205795|    1.259169|    0.511131|    0.008000|
|         964|           0|   -4.208108|   -2.141918|   -2.209335|    1.255874|    0.511130|    0.007998|
|         965|           0|   -4.217617|   -2.154207|   -2.229729|    1.245750|    0.511134|    0.007999|
|         966|           0|   -4.217695|   -2.156852|   -2.243295|    1.245587|    0.511134|    0.007996|
|         967|           0|   -4.213554|   -2.156672|   -2.228084|    1.249724|    0.511140|    0.007998|
|         968|           0|   -4.217728|   -2.161382|   -2.228322|    1.245387|    0.511140|    0.007995|
|         969|           0|   -4.212703|   -2.157893|   -2.211983|    1.250457|    0.511148|    0.007996|
|         970|           0|   -4.208792|   -2.152008|   -2.197414|    1.254427|    0.511146|    0.007994|
+-----------------------------------------------------------------------+
|        File Writing Summary       |              Filename             |
+-----------------------------------------------------------------------+
|SU2 restart                        |solution_flow.dat                  |
|Paraview                           |flow.vtu                           |
|Paraview surface                   |surface_flow.vtu                   |
+-----------------------------------------------------------------------+

Writing the forces breakdown file (forces_breakdown.dat).
+-------------------------------------------------------------------------------------------------------+
|  Inner_Iter|   Time_Iter|    rms[Rho]|   rms[RhoU]|   rms[RhoV]|   rms[RhoE]|          CL|          CD|
+-------------------------------------------------------------------------------------------------------+
|         971|           0|   -4.206324|   -2.148714|   -2.176568|    1.257248|    0.511152|    0.007995|
|         972|           0|   -4.207003|   -2.151463|   -2.187123|    1.256640|    0.511149|    0.007993|
|         973|           0|   -4.209354|   -2.155956|   -2.210277|    1.254442|    0.511152|    0.007995|
|         974|           0|   -4.211693|   -2.154985|   -2.225400|    1.252201|    0.511149|    0.007993|
|         975|           0|   -4.198421|   -2.151258|   -2.213131|    1.265312|    0.511150|    0.007995|
|         976|           0|   -4.204753|   -2.160579|   -2.212492|    1.258698|    0.511144|    0.007993|
|         977|           0|   -4.207037|   -2.156426|   -2.216111|    1.256764|    0.511143|    0.007995|
|         978|           0|   -4.207553|   -2.136924|   -2.213110|    1.257613|    0.511136|    0.007994|
|         979|           0|   -4.199312|   -2.121843|   -2.191708|    1.267385|    0.511136|    0.007997|
|         980|           0|   -4.209645|   -2.132285|   -2.201445|    1.256517|    0.511129|    0.007995|
+-----------------------------------------------------------------------+
|        File Writing Summary       |              Filename             |
+-----------------------------------------------------------------------+
|SU2 restart                        |solution_flow.dat                  |
|Paraview                           |flow.vtu                           |
|Paraview surface                   |surface_flow.vtu                   |
+-----------------------------------------------------------------------+

Writing the forces breakdown file (forces_breakdown.dat).
+-------------------------------------------------------------------------------------------------------+
|  Inner_Iter|   Time_Iter|    rms[Rho]|   rms[RhoU]|   rms[RhoV]|   rms[RhoE]|          CL|          CD|
+-------------------------------------------------------------------------------------------------------+
|         981|           0|   -4.208461|   -2.146862|   -2.205515|    1.256724|    0.511130|    0.007997|
|         982|           0|   -4.206851|   -2.149424|   -2.205454|    1.257643|    0.511127|    0.007996|
|         983|           0|   -4.214698|   -2.165625|   -2.216426|    1.249316|    0.511131|    0.007998|
|         984|           0|   -4.215431|   -2.176455|   -2.219049|    1.248174|    0.511128|    0.007997|
|         985|           0|   -4.218430|   -2.187529|   -2.224689|    1.244891|    0.511132|    0.007999|
|         986|           0|   -4.223712|   -2.187287|   -2.243095|    1.239361|    0.511130|    0.007997|
|         987|           0|   -4.211334|   -2.172993|   -2.222972|    1.251648|    0.511133|    0.008000|
|         988|           0|   -4.216116|   -2.179055|   -2.220237|    1.246606|    0.511129|    0.007999|
|         989|           0|   -4.228307|   -2.188331|   -2.240719|    1.234387|    0.511132|    0.008001|
|         990|           0|   -4.229837|   -2.181828|   -2.246106|    1.233130|    0.511128|    0.007999|
+-----------------------------------------------------------------------+
|        File Writing Summary       |              Filename             |
+-----------------------------------------------------------------------+
|SU2 restart                        |solution_flow.dat                  |
|Paraview                           |flow.vtu                           |
|Paraview surface                   |surface_flow.vtu                   |
+-----------------------------------------------------------------------+

Writing the forces breakdown file (forces_breakdown.dat).
+-------------------------------------------------------------------------------------------------------+
|  Inner_Iter|   Time_Iter|    rms[Rho]|   rms[RhoU]|   rms[RhoV]|   rms[RhoE]|          CL|          CD|
+-------------------------------------------------------------------------------------------------------+
|         991|           0|   -4.213713|   -2.150737|   -2.223014|    1.250359|    0.511132|    0.008002|
|         992|           0|   -4.208291|   -2.129840|   -2.205563|    1.257576|    0.511132|    0.008000|
|         993|           0|   -4.210912|   -2.122110|   -2.199558|    1.256623|    0.511138|    0.008001|
|         994|           0|   -4.205488|   -2.134326|   -2.215746|    1.260717|    0.511137|    0.007999|
|         995|           0|   -4.204874|   -2.145643|   -2.217484|    1.259916|    0.511145|    0.008001|
|         996|           0|   -4.210582|   -2.160222|   -2.220383|    1.253123|    0.511145|    0.007998|
|         997|           0|   -4.215831|   -2.174007|   -2.241543|    1.247293|    0.511151|    0.008000|
|         998|           0|   -4.217964|   -2.178773|   -2.256595|    1.245102|    0.511150|    0.007998|
|         999|           0|   -4.207507|   -2.174562|   -2.240083|    1.255596|    0.511156|    0.007999|

----------------------------- Solver Exit -------------------------------

Maximum number of iterations reached (ITER = 1000) before convergence.
+-----------------------------------------------------------------------+
|      Convergence Field     |     Value    |   Criterion  |  Converged |
+-----------------------------------------------------------------------+
|                  Cauchy[CD]|   0.000214272|       < 1e-10|          No|
+-----------------------------------------------------------------------+
-------------------------------------------------------------------------
+-----------------------------------------------------------------------+
|        File Writing Summary       |              Filename             |
+-----------------------------------------------------------------------+
|SU2 restart                        |solution_flow.dat                  |
|Paraview                           |flow.vtu                           |
|Paraview surface                   |surface_flow.vtu                   |
+-----------------------------------------------------------------------+

Writing the forces breakdown file (forces_breakdown.dat).

------------------------- Solver Postprocessing -------------------------
Deleted CNumerics container.
Deleted CIntegration container.
Deleted CSolver container.
Deleted CIteration container.
Deleted CInterpolator container.
Deleted CInterface container.
Deleted CGeometry container.
Deleted CFreeFormDefBox class.
Deleted CSurfaceMovement class.
Deleted CVolumetricMovement class.
Deleted CConfig container.
Deleted nInst container.
Deleted COutput class.
-------------------------------------------------------------------------

------------------------- Exit Success (SU2_CFD) ------------------------

