
-------------------------------------------------------------------------
|    ___ _   _ ___                                                      |
|   / __| | | |_  )   Release 7.0.3 "Blackbird"                         |
|   \__ \ |_| |/ /                                                      |
|   |___/\___//___|   Suite (Computational Fluid Dynamics Code)         |
|                                                                       |
-------------------------------------------------------------------------
| SU2 Project Website: https://su2code.github.io                        |
|                                                                       |
| The SU2 Project is maintained by the SU2 Foundation                   |
| (http://su2foundation.org)                                            |
-------------------------------------------------------------------------
| Copyright 2012-2020, SU2 Contributors                                 |
|                                                                       |
| SU2 is free software; you can redistribute it and/or                  |
| modify it under the terms of the GNU Lesser General Public            |
| License as published by the Free Software Foundation; either          |
| version 2.1 of the License, or (at your option) any later version.    |
|                                                                       |
| SU2 is distributed in the hope that it will be useful,                |
| but WITHOUT ANY WARRANTY; without even the implied warranty of        |
| MERCHANTABILITY or FITNESS FOR A PARTICULAR PURPOSE. See the GNU      |
| Lesser General Public License for more details.                       |
|                                                                       |
| You should have received a copy of the GNU Lesser General Public      |
| License along with SU2. If not, see <http://www.gnu.org/licenses/>.   |
-------------------------------------------------------------------------

Parsing config file for zone 0

----------------- Physical Case Definition ( Zone 0 ) -------------------
Compressible Euler equations.
Mach number: 0.37.
Angle of attack (AoA): -6.4 deg, and angle of sideslip (AoS): 0 deg.
No restart solution, use the values at infinity (freestream).
Dimensional simulation.
The reference area is 55.7983 m^2.
The semi-span will be computed using the max y(3D) value.
The reference length is 1.8008 m.
Surface(s) where the force coefficients are evaluated and 
their reference origin for moment computation: 
   - VTP (9.6115, 0, 2.5277).
   - Fuselage (9.6115, 0, 2.5277).
   - HTP (9.6115, 0, 2.5277).
   - Wing (9.6115, 0, 2.5277) m.
Surface(s) where the objective function is evaluated: airfoil.
Surface(s) plotted in the output file: VTP, Fuselage, HTP, Wing.
Surface(s) to be analyzed in detail: airfoil.
Surface(s) affected by the design variables: VTP, Fuselage, HTP, Wing.
Input mesh file name: deformed.su2

--------------- Space Numerical Integration ( Zone 0 ) ------------------
Roe (with entropy fix = 0) solver for the flow inviscid terms.
Roe with DDES's FD low-dissipation function.
Second order integration in space, with slope limiter.
Venkatakrishnan slope-limiting method, with constant: 0.05. 
The reference element size is: 1. 
Gradient for upwind reconstruction: Green-Gauss.
Gradient for viscous and source terms: Green-Gauss.

--------------- Time Numerical Integration  ( Zone 0 ) ------------------
Local time stepping (steady state simulation).
Euler implicit method for the flow equations.
FGMRES is used for solving the linear system.
Using a ILU(0) preconditioning.
Convergence criteria of the linear solver: 1e-06.
Max number of linear iterations: 5.
V Multigrid Cycle, with 3 multigrid levels.
Damping factor for the residual restriction: 0.75.
Damping factor for the correction prolongation: 0.75.
No CFL adaptation.
+-------------------------------------------+
|  MG Level| Presmooth|PostSmooth|CorrectSmo|
+-------------------------------------------+
|         0|         1|         0|         0|
|         1|         2|         0|         0|
|         2|         3|         0|         0|
|         3|         3|         0|         0|
+-------------------------------------------+
Courant-Friedrichs-Lewy number:        1

------------------ Convergence Criteria  ( Zone 0 ) ---------------------
Maximum number of solver subiterations: 500.
Begin convergence monitoring at iteration 10.
Residual minimum value: 1e-8.
Cauchy series min. value: 1e-10.
Number of Cauchy elements: 100.
Begin windowed time average at iteration 15.

-------------------- Output Information ( Zone 0 ) ----------------------
Writing solution files every 10 iterations.
Writing the convergence history file every 1 inner iterations.
Writing the screen convergence history every 1 inner iterations.
The tabular file format is Tecplot (.dat).
Convergence history file name: history.
Forces breakdown file name: forces_breakdown.dat.
Surface file name: surface_flow.
Volume file name: flow.
Restart file name: solution_flow.dat.

------------- Config File Boundary Information ( Zone 0 ) ---------------
+-----------------------------------------------------------------------+
|                        Marker Type|                        Marker Name|
+-----------------------------------------------------------------------+
|                         Euler wall|                                VTP|
|                                   |                           Fuselage|
|                                   |                                HTP|
|                                   |                               Wing|
+-----------------------------------------------------------------------+
|                          Far-field|                           Farfield|
+-----------------------------------------------------------------------+
|                     Symmetry plane|                                  0|
+-----------------------------------------------------------------------+
|           Deformable mesh boundary|                            airfoil|
+-----------------------------------------------------------------------+

-------------------- Output Preprocessing ( Zone 0 ) --------------------
Screen output fields: INNER_ITER, TIME_ITER, RMS_DENSITY, RMS_MOMENTUM-X, RMS_MOMENTUM-Y, RMS_ENERGY, LIFT, DRAG
  Info: Ignoring the following history output groups:
  TIME_ITER
History output group(s): ITER, RMS_RES, AERO_COEFF
Warning: No (valid) fields chosen for convergence monitoring. Convergence monitoring inactive.
Warning: No (valid) fields chosen for time convergence monitoring. Time convergence monitoring inactive.
Volume output fields: COORDINATES, SOLUTION, PRIMITIVE

------------------- Geometry Preprocessing ( Zone 0 ) -------------------
Three dimensional problem.
134403 grid points before partitioning.
750945 volume elements before partitioning.
5 surface markers.
2298 boundary elements in index 0 (Marker = VTP).
6838 boundary elements in index 1 (Marker = Fuselage).
9046 boundary elements in index 2 (Marker = HTP).
42568 boundary elements in index 3 (Marker = Wing).
1280 boundary elements in index 4 (Marker = Farfield).
Executing the partitioning functions.
Building the graph adjacency structure.
Calling ParMETIS... graph partitioning complete (14371 edge cuts).
Distributing ParMETIS coloring.
Rebalancing vertices.
Rebalancing volume element connectivity.
Rebalancing markers and surface elements.
142496 vertices including ghost points. 
772621 interior elements including halo cells. 
772621 tetrahedra.
Establishing MPI communication patterns.
Setting point connectivity.
Renumbering points (Reverse Cuthill McKee Ordering).
Recomputing point connectivity.
Setting element connectivity.
Checking the numerical grid orientation.
Identifying edges and vertices.
Computing centers of gravity.
Setting the control volume structure.
Volume of the computational grid: 5.51674e+06.
Searching for the closest normal neighbors to the surfaces.
Storing a mapping from global to local point index.
Compute the surface curvature.
Max K: 876.928. Mean K: 40.4914. Standard deviation K: 80.1933.
Checking for periodicity.
Computing mesh quality statistics for the dual control volumes.
+--------------------------------------------------------------+
|           Mesh Quality Metric|        Minimum|        Maximum|
+--------------------------------------------------------------+
|    Orthogonality Angle (deg.)|        34.8194|        84.7695|
|     CV Face Area Aspect Ratio|        1.23368|        323.355|
|           CV Sub-Volume Ratio|        1.03136|        2788.56|
+--------------------------------------------------------------+
Setting the multigrid structure.
+-------------------------------------------+
|  MG Level|       CVs|Aggl. Rate|       CFL|
+-------------------------------------------+
|         0|    142496|    1/1.00|         1|
|         1|     25276|    1/5.64|  0.842804|
|         2|      5944|    1/4.25|  0.780323|
Finding max control volume width.
Communicating number of neighbors.
Semi-span length = 16.3099 m.
Wetted area = 186.62 m^2.
Area projection in the x-plane = 12.0387 m^2, y-plane = 25.0254 m^2, z-plane = 75.2951 m^2.
Max. coordinate in the x-direction = 16.6882 m, y-direction = 16.3099 m, z-direction = 5.39116 m.
Min. coordinate in the x-direction = 2.50359 m, y-direction = -16.3099 m, z-direction = 1.59604 m.
Checking if Euler & Symmetry markers are straight/plane:
Boundary marker VTP is NOT a single plane.
Boundary marker Fuselage is NOT a single plane.
Boundary marker HTP is NOT a single plane.
Boundary marker Wing is NOT a single plane.
Boundary marker 0 is a single plane.

-------------------- Solver Preprocessing ( Zone 0 ) --------------------
Inviscid flow: Computing density based on free-stream
temperature and pressure using the ideal gas law.
Force coefficients computed using free-stream values.

-- Models:
+------------------------------------------------------------------------------+
|          Viscosity Model|        Conductivity Model|              Fluid Model|
+------------------------------------------------------------------------------+
|                        -|                         -|             STANDARD_AIR|
+------------------------------------------------------------------------------+
-- Fluid properties:
+------------------------------------------------------------------------------+
|                  Name|    Dim. value|    Ref. value|      Unit|Non-dim. value|
+------------------------------------------------------------------------------+
|          Gas Constant|       287.058|             1|  N.m/kg.K|       287.058|
|      Spec. Heat Ratio|             -|             -|         -|           1.4|
+------------------------------------------------------------------------------+
-- Initial and free-stream conditions:
+------------------------------------------------------------------------------+
|                  Name|    Dim. value|    Ref. value|      Unit|Non-dim. value|
+------------------------------------------------------------------------------+
|       Static Pressure|        101325|             1|        Pa|        101325|
|               Density|       1.22498|             1|    kg/m^3|       1.22498|
|           Temperature|        288.15|             1|         K|        288.15|
|          Total Energy|        214716|             1|   m^2/s^2|        214716|
|            Velocity-X|       125.125|             1|       m/s|       125.125|
|            Velocity-Y|             0|             1|       m/s|             0|
|            Velocity-Z|       -14.035|             1|       m/s|       -14.035|
|    Velocity Magnitude|        125.91|             1|       m/s|        125.91|
+------------------------------------------------------------------------------+
|           Mach Number|             -|             -|         -|          0.37|
+------------------------------------------------------------------------------+
Initialize Jacobian structure (Euler). MG level: 0.
Initialize Jacobian structure (Euler). MG level: 1.
Initialize Jacobian structure (Euler). MG level: 2.

------------------- Numerics Preprocessing ( Zone 0 ) -------------------

----------------- Integration Preprocessing ( Zone 0 ) ------------------

------------------- Iteration Preprocessing ( Zone 0 ) ------------------
Euler/Navier-Stokes/RANS fluid iteration.

------------------------------ Begin Solver -----------------------------

Simulation Run using the Single-zone Driver
+-------------------------------------------------------------------------------------------------------+
|  Inner_Iter|   Time_Iter|    rms[Rho]|   rms[RhoU]|   rms[RhoV]|   rms[RhoE]|          CL|          CD|
+-------------------------------------------------------------------------------------------------------+
|           0|           0|   -0.962528|    1.164902|    1.158528|    4.510859|   -0.580242|    0.309429|
|           1|           0|   -1.073426|    1.103318|    1.077224|    4.402893|   -1.005090|    0.531242|
|           2|           0|   -1.108292|    1.151930|    1.088366|    4.369488|   -1.293891|    0.677630|
|           3|           0|   -1.091834|    1.227049|    1.140454|    4.385896|   -1.468307|    0.761177|
|           4|           0|   -1.059825|    1.300643|    1.196778|    4.417640|   -1.549056|    0.793780|
|           5|           0|   -1.027688|    1.369267|    1.247504|    4.449753|   -1.555715|    0.786742|
|           6|           0|   -0.998243|    1.433766|    1.292683|    4.479337|   -1.506251|    0.750450|
|           7|           0|   -0.970444|    1.494686|    1.334406|    4.507325|   -1.416429|    0.693942|
|           8|           0|   -0.943551|    1.551992|    1.374824|    4.534377|   -1.299897|    0.624911|
|           9|           0|   -0.917480|    1.605669|    1.415567|    4.560525|   -1.168162|    0.549680|
|          10|           0|   -0.892827|    1.655658|    1.457566|    4.585116|   -1.030493|    0.473253|
+-----------------------------------------------------------------------+
|        File Writing Summary       |              Filename             |
+-----------------------------------------------------------------------+
|SU2 restart                        |solution_flow.dat                  |
|Paraview                           |flow.vtu                           |
|Paraview surface                   |surface_flow.vtu                   |
+-----------------------------------------------------------------------+

Writing the forces breakdown file (forces_breakdown.dat).
+-------------------------------------------------------------------------------------------------------+
|  Inner_Iter|   Time_Iter|    rms[Rho]|   rms[RhoU]|   rms[RhoV]|   rms[RhoE]|          CL|          CD|
+-------------------------------------------------------------------------------------------------------+
|          11|           0|   -0.870492|    1.701809|    1.500972|    4.607172|   -0.893936|    0.399351|
|          12|           0|   -0.851220|    1.743854|    1.545093|    4.625826|   -0.763476|    0.330420|
|          13|           0|   -0.835620|    1.781494|    1.588822|    4.640327|   -0.642387|    0.267915|
|          14|           0|   -0.823883|    1.814427|    1.630842|    4.650299|   -0.532574|    0.212528|
|          15|           0|   -0.815823|    1.842227|    1.669856|    4.655689|   -0.434854|    0.164361|
|          16|           0|   -0.810534|    1.864423|    1.704731|    4.657187|   -0.349239|    0.123097|
|          17|           0|   -0.806752|    1.880722|    1.734545|    4.655979|   -0.275213|    0.088152|
|          18|           0|   -0.802459|    1.890835|    1.758652|    4.654304|   -0.211934|    0.058820|
|          19|           0|   -0.795318|    1.894743|    1.776578|    4.655310|   -0.158443|    0.034374|
|          20|           0|   -0.783087|    1.892647|    1.788010|    4.662598|   -0.113792|    0.014113|
+-----------------------------------------------------------------------+
|        File Writing Summary       |              Filename             |
+-----------------------------------------------------------------------+
|SU2 restart                        |solution_flow.dat                  |
|Paraview                           |flow.vtu                           |
|Paraview surface                   |surface_flow.vtu                   |
+-----------------------------------------------------------------------+

Writing the forces breakdown file (forces_breakdown.dat).
+-------------------------------------------------------------------------------------------------------+
|  Inner_Iter|   Time_Iter|    rms[Rho]|   rms[RhoU]|   rms[RhoV]|   rms[RhoE]|          CL|          CD|
+-------------------------------------------------------------------------------------------------------+
|          21|           0|   -0.764758|    1.885020|    1.793012|    4.678459|   -0.077046|   -0.002614|
|          22|           0|   -0.740991|    1.872629|    1.792102|    4.702909|   -0.047336|   -0.016368|
|          23|           0|   -0.713706|    1.857368|    1.786352|    4.733662|   -0.023918|   -0.027621|
|          24|           0|   -0.685827|    1.841985|    1.777068|    4.766689|   -0.006150|   -0.036750|
|          25|           0|   -0.660336|    1.829787|    1.766647|    4.798025|    0.006470|   -0.044040|
|          26|           0|   -0.639286|    1.823421|    1.758356|    4.824821|    0.014359|   -0.049695|
|          27|           0|   -0.624355|    1.824415|    1.755713|    4.844926|    0.017838|   -0.053850|
|          28|           0|   -0.616479|    1.831987|    1.760786|    4.857118|    0.017227|   -0.056596|
|          29|           0|   -0.615794|    1.843234|    1.772680|    4.860843|    0.012782|   -0.058002|
|          30|           0|   -0.621811|    1.854718|    1.788448|    4.856248|    0.004757|   -0.058108|
+-----------------------------------------------------------------------+
|        File Writing Summary       |              Filename             |
+-----------------------------------------------------------------------+
|SU2 restart                        |solution_flow.dat                  |
|Paraview                           |flow.vtu                           |
|Paraview surface                   |surface_flow.vtu                   |
+-----------------------------------------------------------------------+

Writing the forces breakdown file (forces_breakdown.dat).
+-------------------------------------------------------------------------------------------------------+
|  Inner_Iter|   Time_Iter|    rms[Rho]|   rms[RhoU]|   rms[RhoV]|   rms[RhoE]|          CL|          CD|
+-------------------------------------------------------------------------------------------------------+
|          31|           0|   -0.632581|    1.862718|    1.804231|    4.844903|   -0.006604|   -0.056952|
|          32|           0|   -0.644354|    1.865702|    1.816489|    4.830155|   -0.021055|   -0.054572|
|          33|           0|   -0.651976|    1.863115|    1.822398|    4.817206|   -0.038329|   -0.051013|
|          34|           0|   -0.649348|    1.856881|    1.820508|    4.813399|   -0.058120|   -0.046334|
|          35|           0|   -0.633348|    1.848472|    1.809682|    4.824105|   -0.080128|   -0.040606|
|          36|           0|   -0.605144|    1.842097|    1.789376|    4.850156|   -0.104018|   -0.033919|
|          37|           0|   -0.570152|    1.842148|    1.762416|    4.886168|   -0.129467|   -0.026370|
|          38|           0|   -0.534902|    1.854612|    1.735378|    4.924478|   -0.156122|   -0.018074|
|          39|           0|   -0.504483|    1.877931|    1.718790|    4.958632|   -0.183637|   -0.009156|
|          40|           0|   -0.480982|    1.910530|    1.725632|    4.985939|   -0.211662|    0.000249|
+-----------------------------------------------------------------------+
|        File Writing Summary       |              Filename             |
+-----------------------------------------------------------------------+
|SU2 restart                        |solution_flow.dat                  |
|Paraview                           |flow.vtu                           |
|Paraview surface                   |surface_flow.vtu                   |
+-----------------------------------------------------------------------+

Writing the forces breakdown file (forces_breakdown.dat).
+-------------------------------------------------------------------------------------------------------+
|  Inner_Iter|   Time_Iter|    rms[Rho]|   rms[RhoU]|   rms[RhoV]|   rms[RhoE]|          CL|          CD|
+-------------------------------------------------------------------------------------------------------+
|          41|           0|   -0.465366|    1.946532|    1.758342|    5.004993|   -0.239864|    0.009998|
|          42|           0|   -0.458116|    1.981413|    1.810342|    5.014872|   -0.267930|    0.019951|
|          43|           0|   -0.459165|    2.011713|    1.867902|    5.015423|   -0.295538|    0.029956|
|          44|           0|   -0.468357|    2.035187|    1.922336|    5.006419|   -0.322396|    0.039874|
|          45|           0|   -0.484598|    2.050996|    1.969682|    4.988458|   -0.348227|    0.049561|
|          46|           0|   -0.505687|    2.059050|    2.007774|    4.962953|   -0.372780|    0.058885|
|          47|           0|   -0.527796|    2.059114|    2.035936|    4.933182|   -0.395827|    0.067716|
|          48|           0|   -0.544984|    2.051025|    2.054417|    4.905105|   -0.417188|    0.075948|
|          49|           0|   -0.553644|    2.035022|    2.063578|    4.883933|   -0.436704|    0.083481|
|          50|           0|   -0.550523|    2.011525|    2.063988|    4.876188|   -0.454229|    0.090235|
+-----------------------------------------------------------------------+
|        File Writing Summary       |              Filename             |
+-----------------------------------------------------------------------+
|SU2 restart                        |solution_flow.dat                  |
|Paraview                           |flow.vtu                           |
|Paraview surface                   |surface_flow.vtu                   |
+-----------------------------------------------------------------------+

Writing the forces breakdown file (forces_breakdown.dat).
+-------------------------------------------------------------------------------------------------------+
|  Inner_Iter|   Time_Iter|    rms[Rho]|   rms[RhoU]|   rms[RhoV]|   rms[RhoE]|          CL|          CD|
+-------------------------------------------------------------------------------------------------------+
|          51|           0|   -0.535487|    1.980668|    2.056032|    4.885399|   -0.469636|    0.096142|
|          52|           0|   -0.512431|    1.944336|    2.040778|    4.908413|   -0.482833|    0.101152|
|          53|           0|   -0.486431|    1.905403|    2.018682|    4.938403|   -0.493776|    0.105236|
|          54|           0|   -0.461967|    1.867153|    1.991366|    4.968736|   -0.502430|    0.108374|
|          55|           0|   -0.441668|    1.835187|    1.961342|    4.995268|   -0.508805|    0.110567|
|          56|           0|   -0.426815|    1.816664|    1.931100|    5.016082|   -0.512909|    0.111828|
|          57|           0|   -0.417661|    1.813388|    1.904947|    5.030547|   -0.514800|    0.112189|
|          58|           0|   -0.413744|    1.824364|    1.886708|    5.039107|   -0.514546|    0.111691|
|          59|           0|   -0.414902|    1.844197|    1.879538|    5.041832|   -0.512251|    0.110390|
|          60|           0|   -0.420872|    1.867514|    1.883739|    5.038752|   -0.508024|    0.108351|
+-----------------------------------------------------------------------+
|        File Writing Summary       |              Filename             |
+-----------------------------------------------------------------------+
|SU2 restart                        |solution_flow.dat                  |
|Paraview                           |flow.vtu                           |
|Paraview surface                   |surface_flow.vtu                   |
+-----------------------------------------------------------------------+

Writing the forces breakdown file (forces_breakdown.dat).
+-------------------------------------------------------------------------------------------------------+
|  Inner_Iter|   Time_Iter|    rms[Rho]|   rms[RhoU]|   rms[RhoV]|   rms[RhoE]|          CL|          CD|
+-------------------------------------------------------------------------------------------------------+
|          61|           0|   -0.430607|    1.890401|    1.896850|    5.030880|   -0.502015|    0.105650|
|          62|           0|   -0.443496|    1.911170|    1.914982|    5.018611|   -0.494396|    0.102369|
|          63|           0|   -0.457967|    1.928621|    1.935068|    5.003107|   -0.485341|    0.098596|
|          64|           0|   -0.472660|    1.942758|    1.953874|    4.985729|   -0.475052|    0.094423|
|          65|           0|   -0.486655|    1.953533|    1.970116|    4.967202|   -0.463728|    0.089940|
|          66|           0|   -0.497851|    1.960203|    1.982282|    4.949930|   -0.451588|    0.085240|
|          67|           0|   -0.505920|    1.964414|    1.990378|    4.934530|   -0.438846|    0.080412|
|          68|           0|   -0.510008|    1.963980|    1.993853|    4.922566|   -0.425735|    0.075547|
|          69|           0|   -0.510159|    1.961760|    1.993495|    4.914896|   -0.412485|    0.070724|
|          70|           0|   -0.506835|    1.956496|    1.988860|    4.911799|   -0.399327|    0.066024|
+-----------------------------------------------------------------------+
|        File Writing Summary       |              Filename             |
+-----------------------------------------------------------------------+
|SU2 restart                        |solution_flow.dat                  |
|Paraview                           |flow.vtu                           |
|Paraview surface                   |surface_flow.vtu                   |
+-----------------------------------------------------------------------+

Writing the forces breakdown file (forces_breakdown.dat).
+-------------------------------------------------------------------------------------------------------+
|  Inner_Iter|   Time_Iter|    rms[Rho]|   rms[RhoU]|   rms[RhoV]|   rms[RhoE]|          CL|          CD|
+-------------------------------------------------------------------------------------------------------+
|          71|           0|   -0.502414|    1.950056|    1.980764|    4.911254|   -0.386483|    0.061513|
|          72|           0|   -0.497574|    1.940532|    1.969429|    4.912710|   -0.374166|    0.057257|
|          73|           0|   -0.493086|    1.929836|    1.955773|    4.915475|   -0.362568|    0.053308|
|          74|           0|   -0.488751|    1.916961|    1.940261|    4.919647|   -0.351857|    0.049712|
|          75|           0|   -0.485886|    1.904277|    1.923864|    4.923567|   -0.342186|    0.046504|
|          76|           0|   -0.484865|    1.890619|    1.906199|    4.926545|   -0.333689|    0.043713|
|          77|           0|   -0.486185|    1.878078|    1.888335|    4.927807|   -0.326478|    0.041355|
|          78|           0|   -0.489975|    1.866175|    1.871638|    4.927060|   -0.320639|    0.039441|
|          79|           0|   -0.495377|    1.854737|    1.856936|    4.925029|   -0.316230|    0.037972|
|          80|           0|   -0.502625|    1.845235|    1.844810|    4.921250|   -0.313289|    0.036942|
+-----------------------------------------------------------------------+
|        File Writing Summary       |              Filename             |
+-----------------------------------------------------------------------+
|SU2 restart                        |solution_flow.dat                  |
|Paraview                           |flow.vtu                           |
|Paraview surface                   |surface_flow.vtu                   |
+-----------------------------------------------------------------------+

Writing the forces breakdown file (forces_breakdown.dat).
+-------------------------------------------------------------------------------------------------------+
|  Inner_Iter|   Time_Iter|    rms[Rho]|   rms[RhoU]|   rms[RhoV]|   rms[RhoE]|          CL|          CD|
+-------------------------------------------------------------------------------------------------------+
|          81|           0|   -0.511961|    1.836470|    1.834565|    4.915479|   -0.311821|    0.036340|
|          82|           0|   -0.522759|    1.829448|    1.826925|    4.908303|   -0.311807|    0.036147|
|          83|           0|   -0.535209|    1.825092|    1.822537|    4.899254|   -0.313202|    0.036338|
|          84|           0|   -0.548830|    1.822211|    1.820362|    4.888745|   -0.315935|    0.036885|
|          85|           0|   -0.563877|    1.820294|    1.820099|    4.876166|   -0.319906|    0.037752|
|          86|           0|   -0.579333|    1.819008|    1.820693|    4.862443|   -0.324994|    0.038903|
|          87|           0|   -0.594135|    1.818494|    1.821549|    4.848750|   -0.331065|    0.040296|
|          88|           0|   -0.609040|    1.818319|    1.822431|    4.833446|   -0.337974|    0.041894|
|          89|           0|   -0.622382|    1.817447|    1.822265|    4.818938|   -0.345561|    0.043652|
|          90|           0|   -0.633678|    1.816452|    1.820717|    4.805694|   -0.353663|    0.045529|
+-----------------------------------------------------------------------+
|        File Writing Summary       |              Filename             |
+-----------------------------------------------------------------------+
|SU2 restart                        |solution_flow.dat                  |
|Paraview                           |flow.vtu                           |
|Paraview surface                   |surface_flow.vtu                   |
+-----------------------------------------------------------------------+

Writing the forces breakdown file (forces_breakdown.dat).
+-------------------------------------------------------------------------------------------------------+
|  Inner_Iter|   Time_Iter|    rms[Rho]|   rms[RhoU]|   rms[RhoV]|   rms[RhoE]|          CL|          CD|
+-------------------------------------------------------------------------------------------------------+
|          91|           0|   -0.642820|    1.815747|    1.817496|    4.793625|   -0.362107|    0.047485|
|          92|           0|   -0.649919|    1.814241|    1.812531|    4.782870|   -0.370729|    0.049481|
|          93|           0|   -0.654823|    1.812105|    1.805469|    4.774067|   -0.379362|    0.051479|
|          94|           0|   -0.657369|    1.808994|    1.796660|    4.767789|   -0.387860|    0.053447|
|          95|           0|   -0.658797|    1.805078|    1.786470|    4.762736|   -0.396070|    0.055354|
|          96|           0|   -0.660087|    1.801200|    1.775173|    4.758040|   -0.403864|    0.057171|
|          97|           0|   -0.661545|    1.797484|    1.763156|    4.753683|   -0.411121|    0.058875|
|          98|           0|   -0.663533|    1.793199|    1.750580|    4.749312|   -0.417733|    0.060445|
|          99|           0|   -0.666073|    1.788574|    1.738473|    4.745046|   -0.423613|    0.061863|
|         100|           0|   -0.669316|    1.783801|    1.727538|    4.740695|   -0.428690|    0.063116|
+-----------------------------------------------------------------------+
|        File Writing Summary       |              Filename             |
+-----------------------------------------------------------------------+
|SU2 restart                        |solution_flow.dat                  |
|Paraview                           |flow.vtu                           |
|Paraview surface                   |surface_flow.vtu                   |
+-----------------------------------------------------------------------+

Writing the forces breakdown file (forces_breakdown.dat).
+-------------------------------------------------------------------------------------------------------+
|  Inner_Iter|   Time_Iter|    rms[Rho]|   rms[RhoU]|   rms[RhoV]|   rms[RhoE]|          CL|          CD|
+-------------------------------------------------------------------------------------------------------+
|         101|           0|   -0.673993|    1.778882|    1.717364|    4.735279|   -0.432918|    0.064194|
|         102|           0|   -0.680705|    1.773947|    1.708041|    4.728128|   -0.436264|    0.065092|
|         103|           0|   -0.689121|    1.767752|    1.699632|    4.719696|   -0.438721|    0.065807|
|         104|           0|   -0.699848|    1.761561|    1.692637|    4.709083|   -0.440297|    0.066341|
|         105|           0|   -0.712580|    1.755345|    1.686518|    4.696978|   -0.441021|    0.066696|
|         106|           0|   -0.727272|    1.748550|    1.681213|    4.683384|   -0.440930|    0.066880|
|         107|           0|   -0.744249|    1.741420|    1.675964|    4.667915|   -0.440082|    0.066900|
|         108|           0|   -0.762610|    1.733225|    1.670377|    4.651746|   -0.438547|    0.066768|
|         109|           0|   -0.781288|    1.723557|    1.663747|    4.636113|   -0.436398|    0.066494|
|         110|           0|   -0.800196|    1.712631|    1.656191|    4.620796|   -0.433718|    0.066091|
+-----------------------------------------------------------------------+
|        File Writing Summary       |              Filename             |
+-----------------------------------------------------------------------+
|SU2 restart                        |solution_flow.dat                  |
|Paraview                           |flow.vtu                           |
|Paraview surface                   |surface_flow.vtu                   |
+-----------------------------------------------------------------------+

Writing the forces breakdown file (forces_breakdown.dat).
+-------------------------------------------------------------------------------------------------------+
|  Inner_Iter|   Time_Iter|    rms[Rho]|   rms[RhoU]|   rms[RhoV]|   rms[RhoE]|          CL|          CD|
+-------------------------------------------------------------------------------------------------------+
|         111|           0|   -0.818845|    1.700617|    1.647566|    4.606221|   -0.430598|    0.065573|
|         112|           0|   -0.836499|    1.686950|    1.637772|    4.592903|   -0.427126|    0.064954|
|         113|           0|   -0.852755|    1.671372|    1.626320|    4.580962|   -0.423399|    0.064247|
|         114|           0|   -0.867327|    1.654313|    1.613713|    4.570285|   -0.419499|    0.063469|
|         115|           0|   -0.880064|    1.636272|    1.600134|    4.560795|   -0.415520|    0.062631|
|         116|           0|   -0.891275|    1.618358|    1.586111|    4.552023|   -0.411541|    0.061750|
|         117|           0|   -0.901161|    1.600359|    1.571936|    4.543504|   -0.407643|    0.060837|
|         118|           0|   -0.910092|    1.583387|    1.558026|    4.534961|   -0.403894|    0.059905|
|         119|           0|   -0.918205|    1.568066|    1.545169|    4.526254|   -0.400361|    0.058966|
|         120|           0|   -0.925600|    1.554844|    1.533902|    4.517235|   -0.397095|    0.058032|
+-----------------------------------------------------------------------+
|        File Writing Summary       |              Filename             |
+-----------------------------------------------------------------------+
|SU2 restart                        |solution_flow.dat                  |
|Paraview                           |flow.vtu                           |
|Paraview surface                   |surface_flow.vtu                   |
+-----------------------------------------------------------------------+

Writing the forces breakdown file (forces_breakdown.dat).
+-------------------------------------------------------------------------------------------------------+
|  Inner_Iter|   Time_Iter|    rms[Rho]|   rms[RhoU]|   rms[RhoV]|   rms[RhoE]|          CL|          CD|
+-------------------------------------------------------------------------------------------------------+
|         121|           0|   -0.932498|    1.544136|    1.524519|    4.507758|   -0.394142|    0.057111|
|         122|           0|   -0.939448|    1.536875|    1.517580|    4.497474|   -0.391536|    0.056214|
|         123|           0|   -0.946877|    1.532989|    1.513004|    4.486011|   -0.389307|    0.055348|
|         124|           0|   -0.954753|    1.532278|    1.510591|    4.473531|   -0.387471|    0.054523|
|         125|           0|   -0.963149|    1.533665|    1.510002|    4.460073|   -0.386033|    0.053743|
|         126|           0|   -0.972262|    1.536189|    1.510976|    4.445540|   -0.384996|    0.053016|
|         127|           0|   -0.981692|    1.539498|    1.513104|    4.430704|   -0.384352|    0.052347|
|         128|           0|   -0.991340|    1.542344|    1.515477|    4.415867|   -0.384087|    0.051742|
|         129|           0|   -1.001642|    1.544169|    1.517451|    4.400525|   -0.384182|    0.051203|
|         130|           0|   -1.012624|    1.544816|    1.518610|    4.384949|   -0.384612|    0.050735|
+-----------------------------------------------------------------------+
|        File Writing Summary       |              Filename             |
+-----------------------------------------------------------------------+
|SU2 restart                        |solution_flow.dat                  |
|Paraview                           |flow.vtu                           |
|Paraview surface                   |surface_flow.vtu                   |
+-----------------------------------------------------------------------+

Writing the forces breakdown file (forces_breakdown.dat).
+-------------------------------------------------------------------------------------------------------+
|  Inner_Iter|   Time_Iter|    rms[Rho]|   rms[RhoU]|   rms[RhoV]|   rms[RhoE]|          CL|          CD|
+-------------------------------------------------------------------------------------------------------+
|         131|           0|   -1.025411|    1.544713|    1.518534|    4.368045|   -0.385346|    0.050340|
|         132|           0|   -1.039537|    1.543301|    1.516899|    4.350651|   -0.386356|    0.050021|
|         133|           0|   -1.053939|    1.540333|    1.513729|    4.334341|   -0.387606|    0.049779|
|         134|           0|   -1.068379|    1.535352|    1.508290|    4.319648|   -0.389059|    0.049615|
|         135|           0|   -1.083130|    1.528145|    1.500447|    4.306355|   -0.390684|    0.049532|
|         136|           0|   -1.097487|    1.518364|    1.490157|    4.295381|   -0.392446|    0.049529|
|         137|           0|   -1.111042|    1.505639|    1.477243|    4.287136|   -0.394306|    0.049604|
|         138|           0|   -1.123672|    1.489689|    1.461788|    4.281234|   -0.396235|    0.049758|
|         139|           0|   -1.134885|    1.470873|    1.444035|    4.278092|   -0.398202|    0.049989|
|         140|           0|   -1.144826|    1.448997|    1.424291|    4.276672|   -0.400174|    0.050296|
+-----------------------------------------------------------------------+
|        File Writing Summary       |              Filename             |
+-----------------------------------------------------------------------+
|SU2 restart                        |solution_flow.dat                  |
|Paraview                           |flow.vtu                           |
|Paraview surface                   |surface_flow.vtu                   |
+-----------------------------------------------------------------------+

Writing the forces breakdown file (forces_breakdown.dat).
+-------------------------------------------------------------------------------------------------------+
|  Inner_Iter|   Time_Iter|    rms[Rho]|   rms[RhoU]|   rms[RhoV]|   rms[RhoE]|          CL|          CD|
+-------------------------------------------------------------------------------------------------------+
|         141|           0|   -1.154062|    1.424533|    1.403078|    4.276064|   -0.402125|    0.050673|
|         142|           0|   -1.162448|    1.397527|    1.380857|    4.275822|   -0.404028|    0.051120|
|         143|           0|   -1.170279|    1.368669|    1.358353|    4.275562|   -0.405860|    0.051629|
|         144|           0|   -1.177606|    1.338670|    1.336686|    4.274796|   -0.407601|    0.052197|
|         145|           0|   -1.184865|    1.308622|    1.317178|    4.272854|   -0.409237|    0.052817|
|         146|           0|   -1.191953|    1.280110|    1.301054|    4.269814|   -0.410752|    0.053483|
|         147|           0|   -1.199678|    1.255113|    1.289289|    4.264749|   -0.412138|    0.054188|
|         148|           0|   -1.208123|    1.235772|    1.282466|    4.257657|   -0.413384|    0.054924|
|         149|           0|   -1.217187|    1.223430|    1.280618|    4.248659|   -0.414489|    0.055682|
|         150|           0|   -1.226834|    1.218601|    1.283083|    4.237692|   -0.415449|    0.056456|
+-----------------------------------------------------------------------+
|        File Writing Summary       |              Filename             |
+-----------------------------------------------------------------------+
|SU2 restart                        |solution_flow.dat                  |
|Paraview                           |flow.vtu                           |
|Paraview surface                   |surface_flow.vtu                   |
+-----------------------------------------------------------------------+

Writing the forces breakdown file (forces_breakdown.dat).
+-------------------------------------------------------------------------------------------------------+
|  Inner_Iter|   Time_Iter|    rms[Rho]|   rms[RhoU]|   rms[RhoV]|   rms[RhoE]|          CL|          CD|
+-------------------------------------------------------------------------------------------------------+
|         151|           0|   -1.237090|    1.220862|    1.288964|    4.224730|   -0.416264|    0.057234|
|         152|           0|   -1.247603|    1.228911|    1.297118|    4.210176|   -0.416935|    0.058009|
|         153|           0|   -1.258395|    1.241117|    1.306241|    4.194046|   -0.417468|    0.058770|
|         154|           0|   -1.269039|    1.254910|    1.315190|    4.176625|   -0.417868|    0.059509|
|         155|           0|   -1.279315|    1.269061|    1.323247|    4.158373|   -0.418139|    0.060216|
|         156|           0|   -1.288978|    1.282657|    1.329935|    4.139808|   -0.418286|    0.060883|
|         157|           0|   -1.297481|    1.294873|    1.334603|    4.121932|   -0.418321|    0.061501|
|         158|           0|   -1.304717|    1.304605|    1.336879|    4.105298|   -0.418249|    0.062063|
|         159|           0|   -1.310414|    1.311550|    1.336559|    4.090900|   -0.418081|    0.062560|
|         160|           0|   -1.314618|    1.315650|    1.333448|    4.079329|   -0.417822|    0.062987|
+-----------------------------------------------------------------------+
|        File Writing Summary       |              Filename             |
+-----------------------------------------------------------------------+
|SU2 restart                        |solution_flow.dat                  |
|Paraview                           |flow.vtu                           |
|Paraview surface                   |surface_flow.vtu                   |
+-----------------------------------------------------------------------+

Writing the forces breakdown file (forces_breakdown.dat).
+-------------------------------------------------------------------------------------------------------+
|  Inner_Iter|   Time_Iter|    rms[Rho]|   rms[RhoU]|   rms[RhoV]|   rms[RhoE]|          CL|          CD|
+-------------------------------------------------------------------------------------------------------+
|         161|           0|   -1.317603|    1.316710|    1.327334|    4.070867|   -0.417486|    0.063337|
|         162|           0|   -1.319666|    1.314651|    1.318298|    4.065483|   -0.417079|    0.063607|
|         163|           0|   -1.321234|    1.309563|    1.306343|    4.062835|   -0.416616|    0.063792|
|         164|           0|   -1.322353|    1.301184|    1.291505|    4.062854|   -0.416101|    0.063890|
|         165|           0|   -1.323403|    1.290099|    1.273871|    4.064791|   -0.415548|    0.063899|
|         166|           0|   -1.325032|    1.276331|    1.253366|    4.067584|   -0.414965|    0.063821|
|         167|           0|   -1.327232|    1.259741|    1.230482|    4.070898|   -0.414359|    0.063655|
|         168|           0|   -1.330528|    1.240382|    1.205541|    4.073767|   -0.413738|    0.063404|
|         169|           0|   -1.335122|    1.218545|    1.179250|    4.075674|   -0.413112|    0.063070|
|         170|           0|   -1.341109|    1.194294|    1.152383|    4.076293|   -0.412486|    0.062660|
+-----------------------------------------------------------------------+
|        File Writing Summary       |              Filename             |
+-----------------------------------------------------------------------+
|SU2 restart                        |solution_flow.dat                  |
|Paraview                           |flow.vtu                           |
|Paraview surface                   |surface_flow.vtu                   |
+-----------------------------------------------------------------------+

Writing the forces breakdown file (forces_breakdown.dat).
+-------------------------------------------------------------------------------------------------------+
|  Inner_Iter|   Time_Iter|    rms[Rho]|   rms[RhoU]|   rms[RhoV]|   rms[RhoE]|          CL|          CD|
+-------------------------------------------------------------------------------------------------------+
|         171|           0|   -1.348422|    1.167482|    1.125986|    4.075520|   -0.411870|    0.062177|
|         172|           0|   -1.356900|    1.138974|    1.101299|    4.073464|   -0.411270|    0.061630|
|         173|           0|   -1.366711|    1.109568|    1.079630|    4.069716|   -0.410693|    0.061023|
|         174|           0|   -1.377958|    1.080014|    1.062142|    4.063946|   -0.410143|    0.060368|
|         175|           0|   -1.390472|    1.051366|    1.049844|    4.056217|   -0.409629|    0.059672|
|         176|           0|   -1.403916|    1.025078|    1.042980|    4.046740|   -0.409152|    0.058944|
|         177|           0|   -1.418260|    1.002866|    1.041229|    4.035462|   -0.408719|    0.058195|
|         178|           0|   -1.433764|    0.986094|    1.043619|    4.021860|   -0.408331|    0.057434|
|         179|           0|   -1.450009|    0.975433|    1.048893|    4.006286|   -0.407996|    0.056671|
|         180|           0|   -1.466664|    0.970778|    1.055664|    3.988915|   -0.407714|    0.055918|
+-----------------------------------------------------------------------+
|        File Writing Summary       |              Filename             |
+-----------------------------------------------------------------------+
|SU2 restart                        |solution_flow.dat                  |
|Paraview                           |flow.vtu                           |
|Paraview surface                   |surface_flow.vtu                   |
+-----------------------------------------------------------------------+

Writing the forces breakdown file (forces_breakdown.dat).
+-------------------------------------------------------------------------------------------------------+
|  Inner_Iter|   Time_Iter|    rms[Rho]|   rms[RhoU]|   rms[RhoV]|   rms[RhoE]|          CL|          CD|
+-------------------------------------------------------------------------------------------------------+
|         181|           0|   -1.483111|    0.971402|    1.062578|    3.970169|   -0.407489|    0.055182|
|         182|           0|   -1.498525|    0.975787|    1.068420|    3.950995|   -0.407318|    0.054475|
|         183|           0|   -1.512759|    0.982512|    1.072606|    3.931580|   -0.407208|    0.053804|
|         184|           0|   -1.525469|    0.990051|    1.074654|    3.912352|   -0.407155|    0.053179|
|         185|           0|   -1.536570|    0.997487|    1.074312|    3.893776|   -0.407159|    0.052606|
|         186|           0|   -1.546003|    1.004089|    1.071139|    3.876348|   -0.407218|    0.052094|
|         187|           0|   -1.554080|    1.009231|    1.065197|    3.860274|   -0.407332|    0.051647|
|         188|           0|   -1.560935|    1.012435|    1.056475|    3.845863|   -0.407499|    0.051272|
|         189|           0|   -1.566876|    1.013612|    1.044877|    3.833373|   -0.407716|    0.050970|
|         190|           0|   -1.572468|    1.012613|    1.030402|    3.822498|   -0.407978|    0.050745|
+-----------------------------------------------------------------------+
|        File Writing Summary       |              Filename             |
+-----------------------------------------------------------------------+
|SU2 restart                        |solution_flow.dat                  |
|Paraview                           |flow.vtu                           |
|Paraview surface                   |surface_flow.vtu                   |
+-----------------------------------------------------------------------+

Writing the forces breakdown file (forces_breakdown.dat).
+-------------------------------------------------------------------------------------------------------+
|  Inner_Iter|   Time_Iter|    rms[Rho]|   rms[RhoU]|   rms[RhoV]|   rms[RhoE]|          CL|          CD|
+-------------------------------------------------------------------------------------------------------+
|         191|           0|   -1.578224|    1.009400|    1.013147|    3.812902|   -0.408286|    0.050600|
|         192|           0|   -1.584059|    1.003779|    0.993110|    3.804926|   -0.408636|    0.050536|
|         193|           0|   -1.590175|    0.995819|    0.970412|    3.798351|   -0.409021|    0.050550|
|         194|           0|   -1.596940|    0.985323|    0.945403|    3.792606|   -0.409435|    0.050641|
|         195|           0|   -1.604666|    0.972336|    0.918619|    3.787120|   -0.409878|    0.050808|
|         196|           0|   -1.613690|    0.957141|    0.890512|    3.781258|   -0.410342|    0.051046|
|         197|           0|   -1.624132|    0.939668|    0.861948|    3.774638|   -0.410827|    0.051351|
|         198|           0|   -1.636116|    0.920059|    0.833534|    3.766960|   -0.411320|    0.051718|
|         199|           0|   -1.649829|    0.898527|    0.806290|    3.757851|   -0.411826|    0.052141|
|         200|           0|   -1.665292|    0.875852|    0.781269|    3.747132|   -0.412332|    0.052613|
+-----------------------------------------------------------------------+
|        File Writing Summary       |              Filename             |
+-----------------------------------------------------------------------+
|SU2 restart                        |solution_flow.dat                  |
|Paraview                           |flow.vtu                           |
|Paraview surface                   |surface_flow.vtu                   |
+-----------------------------------------------------------------------+

Writing the forces breakdown file (forces_breakdown.dat).
+-------------------------------------------------------------------------------------------------------+
|  Inner_Iter|   Time_Iter|    rms[Rho]|   rms[RhoU]|   rms[RhoV]|   rms[RhoE]|          CL|          CD|
+-------------------------------------------------------------------------------------------------------+
|         201|           0|   -1.682656|    0.852049|    0.759636|    3.734423|   -0.412839|    0.053127|
|         202|           0|   -1.701470|    0.827582|    0.741937|    3.720282|   -0.413336|    0.053675|
|         203|           0|   -1.721777|    0.802966|    0.728523|    3.704434|   -0.413828|    0.054249|
|         204|           0|   -1.743523|    0.778540|    0.719350|    3.686850|   -0.414302|    0.054843|
|         205|           0|   -1.766551|    0.754761|    0.713761|    3.667545|   -0.414761|    0.055446|
|         206|           0|   -1.790454|    0.732112|    0.710741|    3.646863|   -0.415195|    0.056052|
|         207|           0|   -1.814915|    0.711266|    0.709309|    3.625050|   -0.415609|    0.056653|
|         208|           0|   -1.839468|    0.692724|    0.708627|    3.602580|   -0.415993|    0.057241|
|         209|           0|   -1.863695|    0.676709|    0.707889|    3.579847|   -0.416350|    0.057810|
|         210|           0|   -1.887456|    0.663391|    0.706473|    3.556883|   -0.416673|    0.058352|
+-----------------------------------------------------------------------+
|        File Writing Summary       |              Filename             |
+-----------------------------------------------------------------------+
|SU2 restart                        |solution_flow.dat                  |
|Paraview                           |flow.vtu                           |
|Paraview surface                   |surface_flow.vtu                   |
+-----------------------------------------------------------------------+

Writing the forces breakdown file (forces_breakdown.dat).
+-------------------------------------------------------------------------------------------------------+
|  Inner_Iter|   Time_Iter|    rms[Rho]|   rms[RhoU]|   rms[RhoV]|   rms[RhoE]|          CL|          CD|
+-------------------------------------------------------------------------------------------------------+
|         211|           0|   -1.910406|    0.652825|    0.703986|    3.534068|   -0.416970|    0.058862|
|         212|           0|   -1.932214|    0.644707|    0.700293|    3.511741|   -0.417230|    0.059334|
|         213|           0|   -1.952846|    0.638565|    0.695229|    3.489931|   -0.417461|    0.059764|
|         214|           0|   -1.972287|    0.633960|    0.688744|    3.468741|   -0.417655|    0.060147|
|         215|           0|   -1.990375|    0.630391|    0.680939|    3.448477|   -0.417823|    0.060482|
|         216|           0|   -2.007148|    0.627409|    0.671975|    3.429196|   -0.417953|    0.060763|
|         217|           0|   -2.022822|    0.624729|    0.662069|    3.410842|   -0.418056|    0.060991|
|         218|           0|   -2.037469|    0.622106|    0.651491|    3.393498|   -0.418126|    0.061163|
|         219|           0|   -2.051259|    0.619213|    0.640526|    3.377058|   -0.418174|    0.061282|
|         220|           0|   -2.064382|    0.615822|    0.629411|    3.361420|   -0.418190|    0.061345|
+-----------------------------------------------------------------------+
|        File Writing Summary       |              Filename             |
+-----------------------------------------------------------------------+
|SU2 restart                        |solution_flow.dat                  |
|Paraview                           |flow.vtu                           |
|Paraview surface                   |surface_flow.vtu                   |
+-----------------------------------------------------------------------+

Writing the forces breakdown file (forces_breakdown.dat).
+-------------------------------------------------------------------------------------------------------+
|  Inner_Iter|   Time_Iter|    rms[Rho]|   rms[RhoU]|   rms[RhoV]|   rms[RhoE]|          CL|          CD|
+-------------------------------------------------------------------------------------------------------+
|         221|           0|   -2.076657|    0.611924|    0.618435|    3.346882|   -0.418187|    0.061356|
|         222|           0|   -2.087861|    0.607585|    0.607775|    3.333865|   -0.418156|    0.061314|
|         223|           0|   -2.097720|    0.602980|    0.597597|    3.322825|   -0.418114|    0.061225|
|         224|           0|   -2.105965|    0.598262|    0.587989|    3.314182|   -0.418047|    0.061089|
|         225|           0|   -2.112262|    0.593644|    0.578948|    3.308398|   -0.417972|    0.060912|
|         226|           0|   -2.116330|    0.589293|    0.570471|    3.305728|   -0.417877|    0.060697|
|         227|           0|   -2.118047|    0.585528|    0.562594|    3.306156|   -0.417782|    0.060448|
|         228|           0|   -2.117290|    0.582642|    0.555335|    3.309620|   -0.417672|    0.060170|
|         229|           0|   -2.114101|    0.580900|    0.548696|    3.315830|   -0.417559|    0.059867|
|         230|           0|   -2.108795|    0.580374|    0.542759|    3.324097|   -0.417435|    0.059544|
+-----------------------------------------------------------------------+
|        File Writing Summary       |              Filename             |
+-----------------------------------------------------------------------+
|SU2 restart                        |solution_flow.dat                  |
|Paraview                           |flow.vtu                           |
|Paraview surface                   |surface_flow.vtu                   |
+-----------------------------------------------------------------------+

Writing the forces breakdown file (forces_breakdown.dat).
+-------------------------------------------------------------------------------------------------------+
|  Inner_Iter|   Time_Iter|    rms[Rho]|   rms[RhoU]|   rms[RhoV]|   rms[RhoE]|          CL|          CD|
+-------------------------------------------------------------------------------------------------------+
|         231|           0|   -2.101752|    0.581172|    0.537666|    3.333732|   -0.417316|    0.059206|
|         232|           0|   -2.093558|    0.583419|    0.533617|    3.343912|   -0.417189|    0.058858|
|         233|           0|   -2.084468|    0.586843|    0.530771|    3.354221|   -0.417067|    0.058505|
|         234|           0|   -2.075100|    0.591534|    0.529375|    3.363918|   -0.416940|    0.058150|
|         235|           0|   -2.065793|    0.597354|    0.529612|    3.372614|   -0.416824|    0.057800|
|         236|           0|   -2.056742|    0.603975|    0.531639|    3.380099|   -0.416706|    0.057456|
|         237|           0|   -2.047946|    0.611015|    0.535477|    3.386406|   -0.416597|    0.057125|
|         238|           0|   -2.039602|    0.618093|    0.541000|    3.391408|   -0.416488|    0.056808|
|         239|           0|   -2.031769|    0.624984|    0.547978|    3.395157|   -0.416393|    0.056509|
|         240|           0|   -2.024370|    0.631421|    0.556086|    3.397918|   -0.416297|    0.056231|
+-----------------------------------------------------------------------+
|        File Writing Summary       |              Filename             |
+-----------------------------------------------------------------------+
|SU2 restart                        |solution_flow.dat                  |
|Paraview                           |flow.vtu                           |
|Paraview surface                   |surface_flow.vtu                   |
+-----------------------------------------------------------------------+

Writing the forces breakdown file (forces_breakdown.dat).
+-------------------------------------------------------------------------------------------------------+
|  Inner_Iter|   Time_Iter|    rms[Rho]|   rms[RhoU]|   rms[RhoV]|   rms[RhoE]|          CL|          CD|
+-------------------------------------------------------------------------------------------------------+
|         241|           0|   -2.017418|    0.637049|    0.564951|    3.399865|   -0.416213|    0.055976|
|         242|           0|   -2.010880|    0.641610|    0.574172|    3.401243|   -0.416131|    0.055745|
|         243|           0|   -2.004550|    0.644923|    0.583358|    3.402587|   -0.416065|    0.055541|
|         244|           0|   -1.998583|    0.646900|    0.592144|    3.403951|   -0.416000|    0.055364|
|         245|           0|   -1.992728|    0.647336|    0.600210|    3.405964|   -0.415949|    0.055215|
|         246|           0|   -1.986901|    0.646161|    0.607265|    3.409012|   -0.415902|    0.055094|
|         247|           0|   -1.981295|    0.643386|    0.613089|    3.413064|   -0.415872|    0.055002|
|         248|           0|   -1.975867|    0.638934|    0.617557|    3.418329|   -0.415845|    0.054936|
|         249|           0|   -1.970656|    0.632920|    0.620566|    3.424785|   -0.415833|    0.054898|
|         250|           0|   -1.965859|    0.625644|    0.622013|    3.432158|   -0.415825|    0.054884|
+-----------------------------------------------------------------------+
|        File Writing Summary       |              Filename             |
+-----------------------------------------------------------------------+
|SU2 restart                        |solution_flow.dat                  |
|Paraview                           |flow.vtu                           |
|Paraview surface                   |surface_flow.vtu                   |
+-----------------------------------------------------------------------+

Writing the forces breakdown file (forces_breakdown.dat).
+-------------------------------------------------------------------------------------------------------+
|  Inner_Iter|   Time_Iter|    rms[Rho]|   rms[RhoU]|   rms[RhoV]|   rms[RhoE]|          CL|          CD|
+-------------------------------------------------------------------------------------------------------+
|         251|           0|   -1.961417|    0.617109|    0.621972|    3.440360|   -0.415834|    0.054896|
|         252|           0|   -1.957355|    0.607565|    0.620497|    3.449178|   -0.415848|    0.054930|
|         253|           0|   -1.953689|    0.597347|    0.617655|    3.458346|   -0.415875|    0.054985|
|         254|           0|   -1.950485|    0.586847|    0.613636|    3.467520|   -0.415908|    0.055058|
|         255|           0|   -1.947778|    0.576553|    0.608665|    3.476397|   -0.415956|    0.055149|
|         256|           0|   -1.945446|    0.567169|    0.603081|    3.484796|   -0.416009|    0.055254|
|         257|           0|   -1.943433|    0.559318|    0.597298|    3.492584|   -0.416076|    0.055372|
|         258|           0|   -1.941931|    0.553613|    0.591740|    3.499188|   -0.416148|    0.055499|
|         259|           0|   -1.940904|    0.550797|    0.586792|    3.504498|   -0.416237|    0.055636|
|         260|           0|   -1.940261|    0.551056|    0.582792|    3.508495|   -0.416330|    0.055779|
+-----------------------------------------------------------------------+
|        File Writing Summary       |              Filename             |
+-----------------------------------------------------------------------+
|SU2 restart                        |solution_flow.dat                  |
|Paraview                           |flow.vtu                           |
|Paraview surface                   |surface_flow.vtu                   |
+-----------------------------------------------------------------------+

Writing the forces breakdown file (forces_breakdown.dat).
+-------------------------------------------------------------------------------------------------------+
|  Inner_Iter|   Time_Iter|    rms[Rho]|   rms[RhoU]|   rms[RhoV]|   rms[RhoE]|          CL|          CD|
+-------------------------------------------------------------------------------------------------------+
|         261|           0|   -1.939830|    0.554508|    0.579986|    3.511307|   -0.416437|    0.055926|
|         262|           0|   -1.939499|    0.560935|    0.578664|    3.512903|   -0.416549|    0.056076|
|         263|           0|   -1.939111|    0.569998|    0.578942|    3.513332|   -0.416677|    0.056226|
|         264|           0|   -1.938599|    0.581115|    0.580761|    3.512595|   -0.416808|    0.056376|
|         265|           0|   -1.937795|    0.593470|    0.583982|    3.510849|   -0.416952|    0.056522|
|         266|           0|   -1.936593|    0.606334|    0.588378|    3.508264|   -0.417098|    0.056665|
|         267|           0|   -1.935174|    0.619248|    0.593664|    3.504778|   -0.417257|    0.056804|
|         268|           0|   -1.933290|    0.631774|    0.599478|    3.500878|   -0.417417|    0.056936|
|         269|           0|   -1.930872|    0.643389|    0.605480|    3.496869|   -0.417586|    0.057061|
|         270|           0|   -1.928468|    0.653762|    0.611284|    3.492348|   -0.417756|    0.057179|
+-----------------------------------------------------------------------+
|        File Writing Summary       |              Filename             |
+-----------------------------------------------------------------------+
|SU2 restart                        |solution_flow.dat                  |
|Paraview                           |flow.vtu                           |
|Paraview surface                   |surface_flow.vtu                   |
+-----------------------------------------------------------------------+

Writing the forces breakdown file (forces_breakdown.dat).
+-------------------------------------------------------------------------------------------------------+
|  Inner_Iter|   Time_Iter|    rms[Rho]|   rms[RhoU]|   rms[RhoV]|   rms[RhoE]|          CL|          CD|
+-------------------------------------------------------------------------------------------------------+
|         271|           0|   -1.926176|    0.662832|    0.616617|    3.487520|   -0.417935|    0.057290|
|         272|           0|   -1.923781|    0.670250|    0.621222|    3.483007|   -0.418111|    0.057391|
|         273|           0|   -1.921246|    0.675752|    0.624847|    3.479176|   -0.418291|    0.057485|
|         274|           0|   -1.918713|    0.679309|    0.627334|    3.476245|   -0.418465|    0.057569|
|         275|           0|   -1.916256|    0.680898|    0.628547|    3.474410|   -0.418643|    0.057646|
|         276|           0|   -1.913962|    0.680385|    0.628421|    3.473763|   -0.418811|    0.057713|
|         277|           0|   -1.911935|    0.677690|    0.626996|    3.474331|   -0.418979|    0.057772|
|         278|           0|   -1.910419|    0.672955|    0.624323|    3.475873|   -0.419132|    0.057822|
|         279|           0|   -1.909538|    0.666194|    0.620411|    3.478161|   -0.419286|    0.057866|
|         280|           0|   -1.909463|    0.657498|    0.615328|    3.480888|   -0.419423|    0.057902|
+-----------------------------------------------------------------------+
|        File Writing Summary       |              Filename             |
+-----------------------------------------------------------------------+
|SU2 restart                        |solution_flow.dat                  |
|Paraview                           |flow.vtu                           |
|Paraview surface                   |surface_flow.vtu                   |
+-----------------------------------------------------------------------+

Writing the forces breakdown file (forces_breakdown.dat).
+-------------------------------------------------------------------------------------------------------+
|  Inner_Iter|   Time_Iter|    rms[Rho]|   rms[RhoU]|   rms[RhoV]|   rms[RhoE]|          CL|          CD|
+-------------------------------------------------------------------------------------------------------+
|         281|           0|   -1.910220|    0.647005|    0.609330|    3.483887|   -0.419554|    0.057931|
|         282|           0|   -1.911791|    0.634965|    0.602571|    3.487009|   -0.419666|    0.057953|
|         283|           0|   -1.914244|    0.621602|    0.595220|    3.489993|   -0.419773|    0.057970|
|         284|           0|   -1.917734|    0.607109|    0.587509|    3.492338|   -0.419860|    0.057981|
|         285|           0|   -1.922081|    0.591900|    0.579778|    3.494107|   -0.419939|    0.057987|
|         286|           0|   -1.927389|    0.576564|    0.572272|    3.495022|   -0.419995|    0.057988|
|         287|           0|   -1.933769|    0.561657|    0.565238|    3.494664|   -0.420045|    0.057986|
|         288|           0|   -1.940842|    0.547712|    0.558919|    3.493340|   -0.420071|    0.057980|
|         289|           0|   -1.948536|    0.535372|    0.553579|    3.490894|   -0.420087|    0.057970|
|         290|           0|   -1.956499|    0.525268|    0.549307|    3.487541|   -0.420081|    0.057956|
+-----------------------------------------------------------------------+
|        File Writing Summary       |              Filename             |
+-----------------------------------------------------------------------+
|SU2 restart                        |solution_flow.dat                  |
|Paraview                           |flow.vtu                           |
|Paraview surface                   |surface_flow.vtu                   |
+-----------------------------------------------------------------------+

Writing the forces breakdown file (forces_breakdown.dat).
+-------------------------------------------------------------------------------------------------------+
|  Inner_Iter|   Time_Iter|    rms[Rho]|   rms[RhoU]|   rms[RhoV]|   rms[RhoE]|          CL|          CD|
+-------------------------------------------------------------------------------------------------------+
|         291|           0|   -1.964429|    0.517809|    0.546151|    3.483473|   -0.420068|    0.057941|
|         292|           0|   -1.972108|    0.513443|    0.544203|    3.478716|   -0.420031|    0.057922|
|         293|           0|   -1.979415|    0.512267|    0.543302|    3.473208|   -0.419986|    0.057901|
|         294|           0|   -1.986196|    0.514068|    0.543259|    3.467018|   -0.419922|    0.057878|
|         295|           0|   -1.992294|    0.518557|    0.543927|    3.460239|   -0.419853|    0.057853|
|         296|           0|   -1.997652|    0.525206|    0.545075|    3.452917|   -0.419766|    0.057825|
|         297|           0|   -2.002173|    0.533289|    0.546479|    3.445163|   -0.419675|    0.057796|
|         298|           0|   -2.005741|    0.542203|    0.547923|    3.437213|   -0.419566|    0.057764|
|         299|           0|   -2.008355|    0.551406|    0.549233|    3.429254|   -0.419459|    0.057732|
|         300|           0|   -2.010047|    0.560405|    0.550207|    3.421475|   -0.419339|    0.057696|
+-----------------------------------------------------------------------+
|        File Writing Summary       |              Filename             |
+-----------------------------------------------------------------------+
|SU2 restart                        |solution_flow.dat                  |
|Paraview                           |flow.vtu                           |
|Paraview surface                   |surface_flow.vtu                   |
+-----------------------------------------------------------------------+

Writing the forces breakdown file (forces_breakdown.dat).
+-------------------------------------------------------------------------------------------------------+
|  Inner_Iter|   Time_Iter|    rms[Rho]|   rms[RhoU]|   rms[RhoV]|   rms[RhoE]|          CL|          CD|
+-------------------------------------------------------------------------------------------------------+
|         301|           0|   -2.010872|    0.568665|    0.550692|    3.414091|   -0.419221|    0.057660|
|         302|           0|   -2.010999|    0.575834|    0.550518|    3.407214|   -0.419095|    0.057621|
|         303|           0|   -2.010641|    0.581742|    0.549576|    3.400952|   -0.418976|    0.057582|
|         304|           0|   -2.009919|    0.586071|    0.547857|    3.395481|   -0.418853|    0.057539|
|         305|           0|   -2.008963|    0.588762|    0.545255|    3.390993|   -0.418737|    0.057496|
|         306|           0|   -2.008081|    0.589788|    0.541769|    3.387386|   -0.418619|    0.057451|
|         307|           0|   -2.007465|    0.589129|    0.537387|    3.384601|   -0.418515|    0.057405|
|         308|           0|   -2.007290|    0.586731|    0.532165|    3.382533|   -0.418413|    0.057357|
|         309|           0|   -2.007859|    0.582550|    0.526163|    3.380855|   -0.418326|    0.057309|
|         310|           0|   -2.009011|    0.576532|    0.519522|    3.379772|   -0.418243|    0.057259|
+-----------------------------------------------------------------------+
|        File Writing Summary       |              Filename             |
+-----------------------------------------------------------------------+
|SU2 restart                        |solution_flow.dat                  |
|Paraview                           |flow.vtu                           |
|Paraview surface                   |surface_flow.vtu                   |
+-----------------------------------------------------------------------+

Writing the forces breakdown file (forces_breakdown.dat).
+-------------------------------------------------------------------------------------------------------+
|  Inner_Iter|   Time_Iter|    rms[Rho]|   rms[RhoU]|   rms[RhoV]|   rms[RhoE]|          CL|          CD|
+-------------------------------------------------------------------------------------------------------+
|         311|           0|   -2.010878|    0.568743|    0.512350|    3.379080|   -0.418179|    0.057210|
|         312|           0|   -2.013666|    0.559331|    0.504824|    3.378432|   -0.418121|    0.057159|
|         313|           0|   -2.017380|    0.548318|    0.497017|    3.377717|   -0.418081|    0.057109|
|         314|           0|   -2.022044|    0.535768|    0.489026|    3.376791|   -0.418049|    0.057058|
|         315|           0|   -2.027626|    0.521891|    0.481042|    3.375565|   -0.418036|    0.057009|
|         316|           0|   -2.034089|    0.506834|    0.473251|    3.373920|   -0.418032|    0.056959|
|         317|           0|   -2.041474|    0.490958|    0.465713|    3.371655|   -0.418047|    0.056912|
|         318|           0|   -2.049822|    0.474610|    0.458562|    3.368526|   -0.418070|    0.056865|
|         319|           0|   -2.058943|    0.458145|    0.451944|    3.364614|   -0.418112|    0.056821|
|         320|           0|   -2.068473|    0.441978|    0.445931|    3.360197|   -0.418161|    0.056778|
+-----------------------------------------------------------------------+
|        File Writing Summary       |              Filename             |
+-----------------------------------------------------------------------+
|SU2 restart                        |solution_flow.dat                  |
|Paraview                           |flow.vtu                           |
|Paraview surface                   |surface_flow.vtu                   |
+-----------------------------------------------------------------------+

Writing the forces breakdown file (forces_breakdown.dat).
+-------------------------------------------------------------------------------------------------------+
|  Inner_Iter|   Time_Iter|    rms[Rho]|   rms[RhoU]|   rms[RhoV]|   rms[RhoE]|          CL|          CD|
+-------------------------------------------------------------------------------------------------------+
|         321|           0|   -2.078098|    0.426642|    0.440553|    3.355437|   -0.418228|    0.056739|
|         322|           0|   -2.087955|    0.412833|    0.435875|    3.349947|   -0.418300|    0.056702|
|         323|           0|   -2.097817|    0.401034|    0.431934|    3.343789|   -0.418387|    0.056669|
|         324|           0|   -2.107463|    0.391705|    0.428559|    3.337027|   -0.418475|    0.056639|
|         325|           0|   -2.116521|    0.385117|    0.425754|    3.329992|   -0.418577|    0.056613|
|         326|           0|   -2.124917|    0.381425|    0.423445|    3.322614|   -0.418680|    0.056591|
|         327|           0|   -2.132387|    0.380525|    0.421493|    3.315097|   -0.418794|    0.056575|
|         328|           0|   -2.138767|    0.382308|    0.419756|    3.307553|   -0.418907|    0.056562|
|         329|           0|   -2.144168|    0.386351|    0.418133|    3.299852|   -0.419027|    0.056556|
|         330|           0|   -2.148586|    0.392037|    0.416499|    3.292049|   -0.419143|    0.056553|
+-----------------------------------------------------------------------+
|        File Writing Summary       |              Filename             |
+-----------------------------------------------------------------------+
|SU2 restart                        |solution_flow.dat                  |
|Paraview                           |flow.vtu                           |
|Paraview surface                   |surface_flow.vtu                   |
+-----------------------------------------------------------------------+

Writing the forces breakdown file (forces_breakdown.dat).
+-------------------------------------------------------------------------------------------------------+
|  Inner_Iter|   Time_Iter|    rms[Rho]|   rms[RhoU]|   rms[RhoV]|   rms[RhoE]|          CL|          CD|
+-------------------------------------------------------------------------------------------------------+
|         331|           0|   -2.152011|    0.398863|    0.414769|    3.284289|   -0.419262|    0.056556|
|         332|           0|   -2.154492|    0.406319|    0.412866|    3.276723|   -0.419374|    0.056564|
|         333|           0|   -2.156261|    0.413857|    0.410724|    3.269305|   -0.419487|    0.056578|
|         334|           0|   -2.157458|    0.421076|    0.408302|    3.262106|   -0.419591|    0.056596|
|         335|           0|   -2.158123|    0.427634|    0.405562|    3.255299|   -0.419695|    0.056620|
|         336|           0|   -2.158598|    0.433286|    0.402440|    3.248796|   -0.419787|    0.056648|
|         337|           0|   -2.158886|    0.437694|    0.398856|    3.242875|   -0.419875|    0.056682|
|         338|           0|   -2.159230|    0.440786|    0.394710|    3.237479|   -0.419951|    0.056719|
|         339|           0|   -2.159709|    0.442352|    0.390143|    3.232713|   -0.420024|    0.056761|
|         340|           0|   -2.160396|    0.442284|    0.385157|    3.228641|   -0.420082|    0.056806|
+-----------------------------------------------------------------------+
|        File Writing Summary       |              Filename             |
+-----------------------------------------------------------------------+
|SU2 restart                        |solution_flow.dat                  |
|Paraview                           |flow.vtu                           |
|Paraview surface                   |surface_flow.vtu                   |
+-----------------------------------------------------------------------+

Writing the forces breakdown file (forces_breakdown.dat).
+-------------------------------------------------------------------------------------------------------+
|  Inner_Iter|   Time_Iter|    rms[Rho]|   rms[RhoU]|   rms[RhoV]|   rms[RhoE]|          CL|          CD|
+-------------------------------------------------------------------------------------------------------+
|         341|           0|   -2.161483|    0.440631|    0.379803|    3.225155|   -0.420135|    0.056855|
|         342|           0|   -2.163110|    0.437411|    0.374102|    3.222143|   -0.420171|    0.056906|
|         343|           0|   -2.165353|    0.432545|    0.368069|    3.219544|   -0.420208|    0.056961|
|         344|           0|   -2.168267|    0.426086|    0.361739|    3.217289|   -0.420227|    0.057017|
[...]
|         405|           0|   -2.463373|    0.143185|    0.099779|    2.946282|   -0.420013|    0.056880|
|         406|           0|   -2.462563|    0.148321|    0.097552|    2.941449|   -0.420000|    0.056912|
|         407|           0|   -2.461812|    0.152263|    0.095153|    2.936997|   -0.419991|    0.056946|
|         408|           0|   -2.461203|    0.154876|    0.092533|    2.933041|   -0.419976|    0.056982|
|         409|           0|   -2.460838|    0.156040|    0.089654|    2.929619|   -0.419968|    0.057021|
|         410|           0|   -2.460839|    0.155734|    0.086485|    2.926716|   -0.419955|    0.057060|
+-----------------------------------------------------------------------+
|        File Writing Summary       |              Filename             |
+-----------------------------------------------------------------------+
|SU2 restart                        |solution_flow.dat                  |
|Paraview                           |flow.vtu                           |
|Paraview surface                   |surface_flow.vtu                   |
+-----------------------------------------------------------------------+

Writing the forces breakdown file (forces_breakdown.dat).
+-------------------------------------------------------------------------------------------------------+
|  Inner_Iter|   Time_Iter|    rms[Rho]|   rms[RhoU]|   rms[RhoV]|   rms[RhoE]|          CL|          CD|
+-------------------------------------------------------------------------------------------------------+
|         411|           0|   -2.461331|    0.153892|    0.082987|    2.924281|   -0.419949|    0.057100|
|         412|           0|   -2.462391|    0.150514|    0.079177|    2.922287|   -0.419939|    0.057141|
|         413|           0|   -2.464153|    0.145598|    0.075076|    2.920554|   -0.419936|    0.057183|
|         414|           0|   -2.466650|    0.139134|    0.070654|    2.919031|   -0.419926|    0.057224|
|         415|           0|   -2.469950|    0.131208|    0.065945|    2.917594|   -0.419927|    0.057265|
|         416|           0|   -2.474005|    0.121876|    0.060923|    2.916274|   -0.419923|    0.057304|
|         417|           0|   -2.478768|    0.111172|    0.055662|    2.915018|   -0.419926|    0.057344|
|         418|           0|   -2.484195|    0.099180|    0.050228|    2.913776|   -0.419926|    0.057380|
|         419|           0|   -2.490321|    0.086042|    0.044640|    2.912364|   -0.419935|    0.057416|
|         420|           0|   -2.497127|    0.072022|    0.038902|    2.910710|   -0.419939|    0.057449|
+-----------------------------------------------------------------------+
|        File Writing Summary       |              Filename             |
+-----------------------------------------------------------------------+
|SU2 restart                        |solution_flow.dat                  |
|Paraview                           |flow.vtu                           |
|Paraview surface                   |surface_flow.vtu                   |
+-----------------------------------------------------------------------+

Writing the forces breakdown file (forces_breakdown.dat).
+-------------------------------------------------------------------------------------------------------+
|  Inner_Iter|   Time_Iter|    rms[Rho]|   rms[RhoU]|   rms[RhoV]|   rms[RhoE]|          CL|          CD|
+-------------------------------------------------------------------------------------------------------+
|         421|           0|   -2.504436|    0.057306|    0.033093|    2.908869|   -0.419950|    0.057480|
|         422|           0|   -2.512127|    0.042108|    0.027274|    2.906820|   -0.419957|    0.057508|
|         423|           0|   -2.520166|    0.026876|    0.021520|    2.904442|   -0.419972|    0.057533|
|         424|           0|   -2.528340|    0.012046|    0.015919|    2.901807|   -0.419983|    0.057556|
|         425|           0|   -2.536595|   -0.001787|    0.010531|    2.898791|   -0.420002|    0.057575|
|         426|           0|   -2.544712|   -0.014058|    0.005422|    2.895453|   -0.420015|    0.057591|
|         427|           0|   -2.552661|   -0.024262|    0.000681|    2.891637|   -0.420036|    0.057604|
|         428|           0|   -2.560078|   -0.031993|   -0.003665|    2.887587|   -0.420051|    0.057613|
|         429|           0|   -2.566894|   -0.036961|   -0.007560|    2.883190|   -0.420073|    0.057619|
|         430|           0|   -2.572905|   -0.039078|   -0.010988|    2.878563|   -0.420090|    0.057622|
+-----------------------------------------------------------------------+
|        File Writing Summary       |              Filename             |
+-----------------------------------------------------------------------+
|SU2 restart                        |solution_flow.dat                  |
|Paraview                           |flow.vtu                           |
|Paraview surface                   |surface_flow.vtu                   |
+-----------------------------------------------------------------------+

Writing the forces breakdown file (forces_breakdown.dat).
+-------------------------------------------------------------------------------------------------------+
|  Inner_Iter|   Time_Iter|    rms[Rho]|   rms[RhoU]|   rms[RhoV]|   rms[RhoE]|          CL|          CD|
+-------------------------------------------------------------------------------------------------------+
|         431|           0|   -2.578236|   -0.038448|   -0.013962|    2.873432|   -0.420112|    0.057621|
|         432|           0|   -2.582637|   -0.035305|   -0.016487|    2.868039|   -0.420127|    0.057617|
|         433|           0|   -2.586055|   -0.030056|   -0.018566|    2.862434|   -0.420148|    0.057610|
|         434|           0|   -2.588436|   -0.023144|   -0.020240|    2.856762|   -0.420162|    0.057599|
|         435|           0|   -2.589981|   -0.015185|   -0.021559|    2.850909|   -0.420181|    0.057587|
|         436|           0|   -2.590650|   -0.006709|   -0.022597|    2.845103|   -0.420193|    0.057571|
|         437|           0|   -2.590526|    0.001791|   -0.023419|    2.839468|   -0.420210|    0.057553|
|         438|           0|   -2.589624|    0.009898|   -0.024117|    2.834244|   -0.420219|    0.057532|
|         439|           0|   -2.588318|    0.017303|   -0.024784|    2.829275|   -0.420232|    0.057509|
|         440|           0|   -2.586716|    0.023777|   -0.025501|    2.824700|   -0.420239|    0.057485|
+-----------------------------------------------------------------------+
|        File Writing Summary       |              Filename             |
+-----------------------------------------------------------------------+
|SU2 restart                        |solution_flow.dat                  |
|Paraview                           |flow.vtu                           |
|Paraview surface                   |surface_flow.vtu                   |
+-----------------------------------------------------------------------+

Writing the forces breakdown file (forces_breakdown.dat).
+-------------------------------------------------------------------------------------------------------+
|  Inner_Iter|   Time_Iter|    rms[Rho]|   rms[RhoU]|   rms[RhoV]|   rms[RhoE]|          CL|          CD|
+-------------------------------------------------------------------------------------------------------+
|         441|           0|   -2.584984|    0.029126|   -0.026359|    2.820597|   -0.420249|    0.057459|
|         442|           0|   -2.583261|    0.033220|   -0.027406|    2.817033|   -0.420251|    0.057432|
|         443|           0|   -2.581805|    0.035906|   -0.028713|    2.813882|   -0.420256|    0.057404|
|         444|           0|   -2.580638|    0.037091|   -0.030345|    2.811300|   -0.420254|    0.057374|
|         445|           0|   -2.579948|    0.036743|   -0.032351|    2.809194|   -0.420256|    0.057345|
|         446|           0|   -2.579858|    0.034780|   -0.034801|    2.807482|   -0.420250|    0.057315|
|         447|           0|   -2.580471|    0.031255|   -0.037716|    2.806086|   -0.420249|    0.057286|
|         448|           0|   -2.581874|    0.026138|   -0.041124|    2.804884|   -0.420239|    0.057257|
|         449|           0|   -2.584080|    0.019382|   -0.045041|    2.803857|   -0.420234|    0.057229|
|         450|           0|   -2.587052|    0.011010|   -0.049396|    2.803024|   -0.420223|    0.057201|
+-----------------------------------------------------------------------+
|        File Writing Summary       |              Filename             |
+-----------------------------------------------------------------------+
|SU2 restart                        |solution_flow.dat                  |
|Paraview                           |flow.vtu                           |
|Paraview surface                   |surface_flow.vtu                   |
+-----------------------------------------------------------------------+

Writing the forces breakdown file (forces_breakdown.dat).
+-------------------------------------------------------------------------------------------------------+
|  Inner_Iter|   Time_Iter|    rms[Rho]|   rms[RhoU]|   rms[RhoV]|   rms[RhoE]|          CL|          CD|
+-------------------------------------------------------------------------------------------------------+
|         451|           0|   -2.590841|    0.001115|   -0.054249|    2.802214|   -0.420214|    0.057174|
|         452|           0|   -2.595358|   -0.010217|   -0.059578|    2.801461|   -0.420199|    0.057148|
|         453|           0|   -2.600611|   -0.022865|   -0.065288|    2.800626|   -0.420190|    0.057125|
|         454|           0|   -2.606553|   -0.036663|   -0.071334|    2.799631|   -0.420174|    0.057102|
|         455|           0|   -2.613130|   -0.051464|   -0.077634|    2.798377|   -0.420161|    0.057081|
|         456|           0|   -2.620122|   -0.066906|   -0.084100|    2.796975|   -0.420143|    0.057062|
|         457|           0|   -2.627549|   -0.082677|   -0.090617|    2.795193|   -0.420131|    0.057046|
|         458|           0|   -2.635285|   -0.098306|   -0.097068|    2.792985|   -0.420114|    0.057031|
|         459|           0|   -2.643236|   -0.113318|   -0.103349|    2.790280|   -0.420103|    0.057020|
|         460|           0|   -2.651102|   -0.127116|   -0.109347|    2.787247|   -0.420085|    0.057009|
+-----------------------------------------------------------------------+
|        File Writing Summary       |              Filename             |
+-----------------------------------------------------------------------+
|SU2 restart                        |solution_flow.dat                  |
|Paraview                           |flow.vtu                           |
|Paraview surface                   |surface_flow.vtu                   |
+-----------------------------------------------------------------------+

Writing the forces breakdown file (forces_breakdown.dat).
+-------------------------------------------------------------------------------------------------------+
|  Inner_Iter|   Time_Iter|    rms[Rho]|   rms[RhoU]|   rms[RhoV]|   rms[RhoE]|          CL|          CD|
+-------------------------------------------------------------------------------------------------------+
|         461|           0|   -2.658770|   -0.139148|   -0.114925|    2.783822|   -0.420075|    0.057002|
|         462|           0|   -2.665912|   -0.148829|   -0.120036|    2.780172|   -0.420061|    0.056997|
|         463|           0|   -2.672521|   -0.155750|   -0.124577|    2.776189|   -0.420051|    0.056994|
|         464|           0|   -2.678396|   -0.159613|   -0.128458|    2.771928|   -0.420037|    0.056993|
|         465|           0|   -2.683521|   -0.160423|   -0.131622|    2.767275|   -0.420033|    0.056996|
|         466|           0|   -2.687793|   -0.158412|   -0.134040|    2.762274|   -0.420022|    0.056999|
|         467|           0|   -2.691264|   -0.153890|   -0.135770|    2.756878|   -0.420018|    0.057005|
|         468|           0|   -2.693718|   -0.147332|   -0.136868|    2.751418|   -0.420011|    0.057013|
|         469|           0|   -2.695460|   -0.139320|   -0.137410|    2.745644|   -0.420011|    0.057023|
|         470|           0|   -2.696404|   -0.130404|   -0.137562|    2.739805|   -0.420007|    0.057034|
+-----------------------------------------------------------------------+
|        File Writing Summary       |              Filename             |
+-----------------------------------------------------------------------+
|SU2 restart                        |solution_flow.dat                  |
|Paraview                           |flow.vtu                           |
|Paraview surface                   |surface_flow.vtu                   |
+-----------------------------------------------------------------------+

Writing the forces breakdown file (forces_breakdown.dat).
+-------------------------------------------------------------------------------------------------------+
|  Inner_Iter|   Time_Iter|    rms[Rho]|   rms[RhoU]|   rms[RhoV]|   rms[RhoE]|          CL|          CD|
+-------------------------------------------------------------------------------------------------------+
|         471|           0|   -2.696743|   -0.121286|   -0.137413|    2.733885|   -0.420010|    0.057047|
|         472|           0|   -2.696540|   -0.112372|   -0.137116|    2.728035|   -0.420008|    0.057061|
|         473|           0|   -2.695974|   -0.104072|   -0.136796|    2.722288|   -0.420015|    0.057077|
|         474|           0|   -2.695045|   -0.096687|   -0.136590|    2.716952|   -0.420018|    0.057094|
|         475|           0|   -2.694102|   -0.090513|   -0.136638|    2.711821|   -0.420029|    0.057113|
|         476|           0|   -2.693167|   -0.085723|   -0.137060|    2.707151|   -0.420034|    0.057131|
|         477|           0|   -2.692379|   -0.082454|   -0.137951|    2.703038|   -0.420047|    0.057152|
|         478|           0|   -2.691784|   -0.080766|   -0.139397|    2.699609|   -0.420056|    0.057171|
|         479|           0|   -2.691768|   -0.080823|   -0.141475|    2.696508|   -0.420072|    0.057192|
|         480|           0|   -2.692268|   -0.082537|   -0.144224|    2.693964|   -0.420084|    0.057213|
+-----------------------------------------------------------------------+
|        File Writing Summary       |              Filename             |
+-----------------------------------------------------------------------+
|SU2 restart                        |solution_flow.dat                  |
|Paraview                           |flow.vtu                           |
|Paraview surface                   |surface_flow.vtu                   |
+-----------------------------------------------------------------------+

Writing the forces breakdown file (forces_breakdown.dat).
+-------------------------------------------------------------------------------------------------------+
|  Inner_Iter|   Time_Iter|    rms[Rho]|   rms[RhoU]|   rms[RhoV]|   rms[RhoE]|          CL|          CD|
+-------------------------------------------------------------------------------------------------------+
|         481|           0|   -2.693422|   -0.085976|   -0.147673|    2.691845|   -0.420101|    0.057234|
|         482|           0|   -2.695210|   -0.091145|   -0.151840|    2.690245|   -0.420111|    0.057253|
|         483|           0|   -2.697821|   -0.098032|   -0.156685|    2.688863|   -0.420132|    0.057274|
|         484|           0|   -2.701244|   -0.106609|   -0.162175|    2.687642|   -0.420145|    0.057293|
|         485|           0|   -2.705414|   -0.116790|   -0.168267|    2.686622|   -0.420163|    0.057311|
|         486|           0|   -2.710240|   -0.128514|   -0.174908|    2.685819|   -0.420177|    0.057329|
|         487|           0|   -2.715960|   -0.141707|   -0.182007|    2.684726|   -0.420197|    0.057346|
|         488|           0|   -2.722309|   -0.156232|   -0.189449|    2.683598|   -0.420211|    0.057362|
|         489|           0|   -2.729143|   -0.171815|   -0.197115|    2.682451|   -0.420229|    0.057377|
|         490|           0|   -2.736384|   -0.188068|   -0.204868|    2.681185|   -0.420241|    0.057390|
+-----------------------------------------------------------------------+
|        File Writing Summary       |              Filename             |
+-----------------------------------------------------------------------+
|SU2 restart                        |solution_flow.dat                  |
|Paraview                           |flow.vtu                           |
|Paraview surface                   |surface_flow.vtu                   |
+-----------------------------------------------------------------------+

Writing the forces breakdown file (forces_breakdown.dat).
+-------------------------------------------------------------------------------------------------------+
|  Inner_Iter|   Time_Iter|    rms[Rho]|   rms[RhoU]|   rms[RhoV]|   rms[RhoE]|          CL|          CD|
+-------------------------------------------------------------------------------------------------------+
|         491|           0|   -2.744174|   -0.204719|   -0.212552|    2.679418|   -0.420260|    0.057402|
|         492|           0|   -2.752190|   -0.221270|   -0.220036|    2.677361|   -0.420272|    0.057413|
|         493|           0|   -2.760364|   -0.237156|   -0.227137|    2.674866|   -0.420287|    0.057422|
|         494|           0|   -2.768447|   -0.251762|   -0.233711|    2.671988|   -0.420294|    0.057428|
|         495|           0|   -2.776503|   -0.264432|   -0.239563|    2.668480|   -0.420310|    0.057435|
|         496|           0|   -2.784380|   -0.274527|   -0.244585|    2.664288|   -0.420316|    0.057439|
|         497|           0|   -2.791778|   -0.281612|   -0.248736|    2.659627|   -0.420327|    0.057442|
|         498|           0|   -2.798499|   -0.285306|   -0.252011|    2.654564|   -0.420330|    0.057443|
|         499|           0|   -2.804728|   -0.285693|   -0.254438|    2.648759|   -0.420339|    0.057443|

----------------------------- Solver Exit -------------------------------

Maximum number of iterations reached (ITER = 500) before convergence.
+-----------------------------------------------------------------------+
|      Convergence Field     |     Value    |   Criterion  |  Converged |
+-----------------------------------------------------------------------+
|                  Cauchy[CD]|   0.000339132|       < 1e-10|          No|
+-----------------------------------------------------------------------+
-------------------------------------------------------------------------
+-----------------------------------------------------------------------+
|        File Writing Summary       |              Filename             |
+-----------------------------------------------------------------------+
|SU2 restart                        |solution_flow.dat                  |
|Paraview                           |flow.vtu                           |
|Paraview surface                   |surface_flow.vtu                   |
+-----------------------------------------------------------------------+

Writing the forces breakdown file (forces_breakdown.dat).

------------------------- Solver Postprocessing -------------------------
Deleted CNumerics container.
Deleted CIntegration container.
Deleted CSolver container.
Deleted CIteration container.
Deleted CInterpolator container.
Deleted CInterface container.
Deleted CGeometry container.
Deleted CFreeFormDefBox class.
Deleted CSurfaceMovement class.
Deleted CVolumetricMovement class.
Deleted CConfig container.
Deleted nInst container.
Deleted COutput class.
-------------------------------------------------------------------------

------------------------- Exit Success (SU2_CFD) ------------------------

