
-------------------------------------------------------------------------
|    ___ _   _ ___                                                      |
|   / __| | | |_  )   Release 7.0.3 "Blackbird"                         |
|   \__ \ |_| |/ /                                                      |
|   |___/\___//___|   Suite (Computational Fluid Dynamics Code)         |
|                                                                       |
-------------------------------------------------------------------------
| SU2 Project Website: https://su2code.github.io                        |
|                                                                       |
| The SU2 Project is maintained by the SU2 Foundation                   |
| (http://su2foundation.org)                                            |
-------------------------------------------------------------------------
| Copyright 2012-2020, SU2 Contributors                                 |
|                                                                       |
| SU2 is free software; you can redistribute it and/or                  |
| modify it under the terms of the GNU Lesser General Public            |
| License as published by the Free Software Foundation; either          |
| version 2.1 of the License, or (at your option) any later version.    |
|                                                                       |
| SU2 is distributed in the hope that it will be useful,                |
| but WITHOUT ANY WARRANTY; without even the implied warranty of        |
| MERCHANTABILITY or FITNESS FOR A PARTICULAR PURPOSE. See the GNU      |
| Lesser General Public License for more details.                       |
|                                                                       |
| You should have received a copy of the GNU Lesser General Public      |
| License along with SU2. If not, see <http://www.gnu.org/licenses/>.   |
-------------------------------------------------------------------------

Parsing config file for zone 0

----------------- Physical Case Definition ( Zone 0 ) -------------------
Compressible Euler equations.
Mach number: 0.294.
Angle of attack (AoA): 10 deg, and angle of sideslip (AoS): 0 deg.
No restart solution, use the values at infinity (freestream).
Dimensional simulation.
The reference area is 10 m^2.
The semi-span will be computed using the max y(3D) value.
The reference length is 1 m.
Reference origin for moment evaluation is (0, 0, 0).
Surface(s) where the force coefficients are evaluated: Wing_1.

Surface(s) where the objective function is evaluated: airfoil.
Surface(s) plotted in the output file: Wing_1.
Surface(s) to be analyzed in detail: airfoil.
Surface(s) affected by the design variables: Wing_1.
Input mesh file name: deformed.su2

--------------- Space Numerical Integration ( Zone 0 ) ------------------
Roe (with entropy fix = 0) solver for the flow inviscid terms.
Roe with DDES's FD low-dissipation function.
Second order integration in space, with slope limiter.
Venkatakrishnan slope-limiting method, with constant: 0.05. 
The reference element size is: 1. 
Gradient for upwind reconstruction: Green-Gauss.
Gradient for viscous and source terms: Green-Gauss.

--------------- Time Numerical Integration  ( Zone 0 ) ------------------
Local time stepping (steady state simulation).
Euler implicit method for the flow equations.
FGMRES is used for solving the linear system.
Using a ILU(0) preconditioning.
Convergence criteria of the linear solver: 1e-06.
Max number of linear iterations: 5.
V Multigrid Cycle, with 3 multigrid levels.
Damping factor for the residual restriction: 0.75.
Damping factor for the correction prolongation: 0.75.
No CFL adaptation.
+-------------------------------------------+
|  MG Level| Presmooth|PostSmooth|CorrectSmo|
+-------------------------------------------+
|         0|         1|         0|         0|
|         1|         2|         0|         0|
|         2|         3|         0|         0|
|         3|         3|         0|         0|
+-------------------------------------------+
Courant-Friedrichs-Lewy number:        1

------------------ Convergence Criteria  ( Zone 0 ) ---------------------
Maximum number of solver subiterations: 1000.
Begin convergence monitoring at iteration 10.
Residual minimum value: 1e-8.
Cauchy series min. value: 1e-10.
Number of Cauchy elements: 100.
Begin windowed time average at iteration 15.

-------------------- Output Information ( Zone 0 ) ----------------------
Writing solution files every 10 iterations.
Writing the convergence history file every 1 inner iterations.
Writing the screen convergence history every 1 inner iterations.
The tabular file format is Tecplot (.dat).
Convergence history file name: history.
Forces breakdown file name: forces_breakdown.dat.
Surface file name: surface_flow.
Volume file name: flow.
Restart file name: solution_flow.dat.

------------- Config File Boundary Information ( Zone 0 ) ---------------
+-----------------------------------------------------------------------+
|                        Marker Type|                        Marker Name|
+-----------------------------------------------------------------------+
|                         Euler wall|                             Wing_1|
+-----------------------------------------------------------------------+
|                          Far-field|                           Farfield|
+-----------------------------------------------------------------------+
|                     Symmetry plane|                                  0|
+-----------------------------------------------------------------------+
|           Deformable mesh boundary|                            airfoil|
+-----------------------------------------------------------------------+

-------------------- Output Preprocessing ( Zone 0 ) --------------------
Screen output fields: INNER_ITER, TIME_ITER, RMS_DENSITY, RMS_MOMENTUM-X, RMS_MOMENTUM-Y, RMS_ENERGY, LIFT, DRAG
  Info: Ignoring the following history output groups:
  TIME_ITER
History output group(s): ITER, RMS_RES, AERO_COEFF
Warning: No (valid) fields chosen for convergence monitoring. Convergence monitoring inactive.
Warning: No (valid) fields chosen for time convergence monitoring. Time convergence monitoring inactive.
Volume output fields: COORDINATES, SOLUTION, PRIMITIVE

------------------- Geometry Preprocessing ( Zone 0 ) -------------------
Three dimensional problem.
142678 grid points before partitioning.
739205 volume elements before partitioning.
2 surface markers.
99234 boundary elements in index 0 (Marker = Wing_1).
1280 boundary elements in index 1 (Marker = Farfield).
Executing the partitioning functions.
Building the graph adjacency structure.
Calling ParMETIS... graph partitioning complete (18884 edge cuts).
Distributing ParMETIS coloring.
Rebalancing vertices.
Rebalancing volume element connectivity.
Rebalancing markers and surface elements.
153425 vertices including ghost points. 
767118 interior elements including halo cells. 
767118 tetrahedra.
Establishing MPI communication patterns.
Setting point connectivity.
Renumbering points (Reverse Cuthill McKee Ordering).
Recomputing point connectivity.
Setting element connectivity.
Checking the numerical grid orientation.
Identifying edges and vertices.
Computing centers of gravity.
Setting the control volume structure.
Volume of the computational grid: 587306.
Searching for the closest normal neighbors to the surfaces.
Storing a mapping from global to local point index.
Compute the surface curvature.
Max K: 955.628. Mean K: 12.8887. Standard deviation K: 55.0088.
Checking for periodicity.
Computing mesh quality statistics for the dual control volumes.
+--------------------------------------------------------------+
|           Mesh Quality Metric|        Minimum|        Maximum|
+--------------------------------------------------------------+
|    Orthogonality Angle (deg.)|        46.5051|        85.7736|
|     CV Face Area Aspect Ratio|        1.42353|        36.8269|
|           CV Sub-Volume Ratio|        1.02914|        142.741|
+--------------------------------------------------------------+
Setting the multigrid structure.
+-------------------------------------------+
|  MG Level|       CVs|Aggl. Rate|       CFL|
+-------------------------------------------+
|         0|    153425|    1/1.00|         1|
|         1|     27876|     1/5.5|  0.849577|
|         2|      6802|     1/4.1|  0.796335|
Finding max control volume width.
Communicating number of neighbors.
Semi-span length = 4.99019 m.
Wetted area = 42.1785 m^2.
Area projection in the x-plane = 3.07967 m^2, y-plane = 1.52361 m^2, z-plane = 20.0972 m^2.
Max. coordinate in the x-direction = 1.02238 m, y-direction = 4.99019 m, z-direction = 0.480923 m.
Min. coordinate in the x-direction = -1.02506 m, y-direction = -4.98957 m, z-direction = -0.118909 m.
Checking if Euler & Symmetry markers are straight/plane:
Boundary marker Wing_1 is NOT a single plane.
Boundary marker 0 is a single plane.

-------------------- Solver Preprocessing ( Zone 0 ) --------------------
Inviscid flow: Computing density based on free-stream
temperature and pressure using the ideal gas law.
Force coefficients computed using free-stream values.

-- Models:
+------------------------------------------------------------------------------+
|          Viscosity Model|        Conductivity Model|              Fluid Model|
+------------------------------------------------------------------------------+
|                        -|                         -|             STANDARD_AIR|
+------------------------------------------------------------------------------+
-- Fluid properties:
+------------------------------------------------------------------------------+
|                  Name|    Dim. value|    Ref. value|      Unit|Non-dim. value|
+------------------------------------------------------------------------------+
|          Gas Constant|       287.058|             1|  N.m/kg.K|       287.058|
|      Spec. Heat Ratio|             -|             -|         -|           1.4|
+------------------------------------------------------------------------------+
-- Initial and free-stream conditions:
+------------------------------------------------------------------------------+
|                  Name|    Dim. value|    Ref. value|      Unit|Non-dim. value|
+------------------------------------------------------------------------------+
|       Static Pressure|        101325|             1|        Pa|        101325|
|               Density|       1.22498|             1|    kg/m^3|       1.22498|
|           Temperature|        288.15|             1|         K|        288.15|
|          Total Energy|        211794|             1|   m^2/s^2|        211794|
|            Velocity-X|       98.5274|             1|       m/s|       98.5274|
|            Velocity-Y|             0|             1|       m/s|             0|
|            Velocity-Z|        17.373|             1|       m/s|        17.373|
|    Velocity Magnitude|       100.047|             1|       m/s|       100.047|
+------------------------------------------------------------------------------+
|           Mach Number|             -|             -|         -|         0.294|
+------------------------------------------------------------------------------+
Initialize Jacobian structure (Euler). MG level: 0.
Initialize Jacobian structure (Euler). MG level: 1.
Initialize Jacobian structure (Euler). MG level: 2.

------------------- Numerics Preprocessing ( Zone 0 ) -------------------

----------------- Integration Preprocessing ( Zone 0 ) ------------------

------------------- Iteration Preprocessing ( Zone 0 ) ------------------
Euler/Navier-Stokes/RANS fluid iteration.

------------------------------ Begin Solver -----------------------------

Simulation Run using the Single-zone Driver
+-------------------------------------------------------------------------------------------------------+
|  Inner_Iter|   Time_Iter|    rms[Rho]|   rms[RhoU]|   rms[RhoV]|   rms[RhoE]|          CL|          CD|
+-------------------------------------------------------------------------------------------------------+
|           0|           0|   -1.662755|    0.505325|   -0.351669|    3.806345|    2.096993|    0.943021|
|           1|           0|   -1.770973|    0.414884|   -0.136012|    3.698426|    3.651819|    1.628085|
|           2|           0|   -1.773898|    0.446014|    0.051693|    3.697262|    4.736552|    2.089993|
|           3|           0|   -1.719662|    0.531192|    0.168145|    3.752293|    5.434740|    2.367359|
|           4|           0|   -1.656884|    0.627047|    0.263626|    3.815448|    5.824963|    2.496927|
|           5|           0|   -1.598511|    0.723524|    0.355779|    3.874371|    5.978301|    2.513061|
|           6|           0|   -1.544851|    0.818303|    0.448923|    3.928808|    5.955639|    2.446083|
|           7|           0|   -1.494882|    0.909572|    0.542622|    3.979676|    5.808125|    2.321714|
|           8|           0|   -1.448376|    0.995804|    0.635397|    4.027095|    5.578668|    2.161564|
|           9|           0|   -1.405685|    1.075836|    0.725709|    4.070614|    5.302057|    1.983273|
|          10|           0|   -1.367589|    1.149054|    0.812354|    4.109389|    5.003399|    1.799931|
+-----------------------------------------------------------------------+
|        File Writing Summary       |              Filename             |
+-----------------------------------------------------------------------+
|SU2 restart                        |solution_flow.dat                  |
|Paraview                           |flow.vtu                           |
|Paraview surface                   |surface_flow.vtu                   |
+-----------------------------------------------------------------------+

Writing the forces breakdown file (forces_breakdown.dat).
+-------------------------------------------------------------------------------------------------------+
|  Inner_Iter|   Time_Iter|    rms[Rho]|   rms[RhoU]|   rms[RhoV]|   rms[RhoE]|          CL|          CD|
+-------------------------------------------------------------------------------------------------------+
|          11|           0|   -1.334538|    1.215296|    0.894357|    4.142907|    4.699319|    1.620256|
|          12|           0|   -1.307087|    1.274484|    0.971050|    4.170515|    4.400732|    1.449933|
|          13|           0|   -1.285504|    1.326741|    1.041901|    4.191832|    4.113861|    1.292037|
|          14|           0|   -1.269759|    1.372227|    1.106535|    4.206722|    3.841106|    1.147501|
|          15|           0|   -1.259698|    1.411114|    1.164825|    4.215151|    3.582217|    1.015832|
|          16|           0|   -1.254772|    1.443569|    1.216687|    4.217399|    3.335275|    0.895662|
|          17|           0|   -1.253892|    1.469722|    1.262141|    4.214287|    3.097535|    0.785180|
|          18|           0|   -1.255283|    1.489786|    1.301192|    4.207431|    2.866009|    0.682473|
|          19|           0|   -1.256438|    1.503902|    1.333827|    4.199460|    2.637964|    0.585761|
|          20|           0|   -1.254526|    1.512326|    1.360227|    4.193899|    2.411208|    0.493554|
+-----------------------------------------------------------------------+
|        File Writing Summary       |              Filename             |
+-----------------------------------------------------------------------+
|SU2 restart                        |solution_flow.dat                  |
|Paraview                           |flow.vtu                           |
|Paraview surface                   |surface_flow.vtu                   |
+-----------------------------------------------------------------------+

Writing the forces breakdown file (forces_breakdown.dat).
+-------------------------------------------------------------------------------------------------------+
|  Inner_Iter|   Time_Iter|    rms[Rho]|   rms[RhoU]|   rms[RhoV]|   rms[RhoE]|          CL|          CD|
+-------------------------------------------------------------------------------------------------------+
|          21|           0|   -1.246968|    1.515274|    1.380477|    4.194702|    2.184261|    0.404721|
|          22|           0|   -1.232099|    1.513202|    1.394800|    4.205202|    1.956514|    0.318542|
|          23|           0|   -1.210585|    1.506888|    1.403366|    4.225694|    1.728148|    0.234681|
|          24|           0|   -1.184792|    1.496549|    1.406614|    4.253431|    1.500122|    0.153165|
|          25|           0|   -1.157654|    1.483062|    1.404925|    4.284463|    1.273980|    0.074299|
|          26|           0|   -1.131889|    1.467534|    1.398716|    4.314999|    1.051738|   -0.001398|
|          27|           0|   -1.109499|    1.451058|    1.388438|    4.342195|    0.835692|   -0.073289|
|          28|           0|   -1.091746|    1.434455|    1.375037|    4.364314|    0.628238|   -0.140688|
|          29|           0|   -1.078937|    1.418317|    1.358958|    4.380848|    0.431759|   -0.202903|
|          30|           0|   -1.071242|    1.403096|    1.340866|    4.391433|    0.248481|   -0.259306|
+-----------------------------------------------------------------------+
|        File Writing Summary       |              Filename             |
+-----------------------------------------------------------------------+
|SU2 restart                        |solution_flow.dat                  |
|Paraview                           |flow.vtu                           |
|Paraview surface                   |surface_flow.vtu                   |
+-----------------------------------------------------------------------+

Writing the forces breakdown file (forces_breakdown.dat).
+-------------------------------------------------------------------------------------------------------+
|  Inner_Iter|   Time_Iter|    rms[Rho]|   rms[RhoU]|   rms[RhoV]|   rms[RhoE]|          CL|          CD|
+-------------------------------------------------------------------------------------------------------+
|          31|           0|   -1.067713|    1.389074|    1.321098|    4.396925|    0.080447|   -0.309343|
|          32|           0|   -1.067298|    1.377220|    1.300507|    4.398280|   -0.070547|   -0.352567|
|          33|           0|   -1.068577|    1.368784|    1.279621|    4.396942|   -0.202976|   -0.388650|
|          34|           0|   -1.069034|    1.364235|    1.259503|    4.395322|   -0.315606|   -0.417365|
|          35|           0|   -1.066865|    1.364389|    1.241286|    4.395502|   -0.407486|   -0.438599|
|          36|           0|   -1.061602|    1.370269|    1.228336|    4.398440|   -0.477936|   -0.452331|
|          37|           0|   -1.052938|    1.383272|    1.223561|    4.404938|   -0.526537|   -0.458629|
|          38|           0|   -1.042097|    1.403356|    1.230934|    4.413947|   -0.553106|   -0.457626|
|          39|           0|   -1.030369|    1.428999|    1.251450|    4.424514|   -0.557653|   -0.449512|
|          40|           0|   -1.019754|    1.456687|    1.282948|    4.434402|   -0.540404|   -0.434531|
+-----------------------------------------------------------------------+
|        File Writing Summary       |              Filename             |
+-----------------------------------------------------------------------+
|SU2 restart                        |solution_flow.dat                  |
|Paraview                           |flow.vtu                           |
|Paraview surface                   |surface_flow.vtu                   |
+-----------------------------------------------------------------------+

Writing the forces breakdown file (forces_breakdown.dat).
+-------------------------------------------------------------------------------------------------------+
|  Inner_Iter|   Time_Iter|    rms[Rho]|   rms[RhoU]|   rms[RhoV]|   rms[RhoE]|          CL|          CD|
+-------------------------------------------------------------------------------------------------------+
|          41|           0|   -1.012410|    1.484045|    1.322220|    4.441171|   -0.501815|   -0.412983|
|          42|           0|   -1.009406|    1.510143|    1.364653|    4.443579|   -0.442534|   -0.385204|
|          43|           0|   -1.010859|    1.532973|    1.405752|    4.441078|   -0.363410|   -0.351579|
|          44|           0|   -1.016663|    1.550981|    1.442900|    4.433603|   -0.265499|   -0.312543|
|          45|           0|   -1.026760|    1.563876|    1.474362|    4.421170|   -0.150052|   -0.268573|
|          46|           0|   -1.037779|    1.570648|    1.498990|    4.406979|   -0.018535|   -0.220196|
|          47|           0|   -1.048856|    1.571768|    1.516600|    4.392367|    0.127362|   -0.167996|
|          48|           0|   -1.057450|    1.566672|    1.527357|    4.380312|    0.285772|   -0.112600|
|          49|           0|   -1.060523|    1.555629|    1.531364|    4.374860|    0.454684|   -0.054672|
|          50|           0|   -1.057461|    1.537863|    1.528385|    4.377077|    0.631927|    0.005076|
+-----------------------------------------------------------------------+
|        File Writing Summary       |              Filename             |
+-----------------------------------------------------------------------+
|SU2 restart                        |solution_flow.dat                  |
|Paraview                           |flow.vtu                           |
|Paraview surface                   |surface_flow.vtu                   |
+-----------------------------------------------------------------------+

Writing the forces breakdown file (forces_breakdown.dat).
+-------------------------------------------------------------------------------------------------------+
|  Inner_Iter|   Time_Iter|    rms[Rho]|   rms[RhoU]|   rms[RhoV]|   rms[RhoE]|          CL|          CD|
+-------------------------------------------------------------------------------------------------------+
|          51|           0|   -1.049369|    1.514097|    1.519119|    4.386324|    0.815216|    0.065904|
|          52|           0|   -1.037362|    1.484858|    1.503556|    4.401357|    1.002209|    0.127049|
|          53|           0|   -1.024029|    1.452301|    1.483167|    4.418766|    1.190518|    0.187741|
|          54|           0|   -1.011839|    1.419317|    1.459447|    4.435485|    1.377709|    0.247202|
|          55|           0|   -1.002501|    1.389312|    1.434163|    4.449223|    1.561399|    0.304672|
|          56|           0|   -0.996875|    1.365849|    1.410305|    4.458845|    1.739261|    0.359414|
|          57|           0|   -0.995055|    1.353851|    1.391549|    4.464108|    1.909087|    0.410736|
|          58|           0|   -0.998674|    1.353163|    1.381943|    4.463046|    2.068815|    0.457999|
|          59|           0|   -1.006505|    1.363120|    1.383598|    4.456918|    2.216549|    0.500630|
|          60|           0|   -1.018210|    1.380050|    1.395262|    4.445834|    2.350596|    0.538132|
+-----------------------------------------------------------------------+
|        File Writing Summary       |              Filename             |
+-----------------------------------------------------------------------+
|SU2 restart                        |solution_flow.dat                  |
|Paraview                           |flow.vtu                           |
|Paraview surface                   |surface_flow.vtu                   |
+-----------------------------------------------------------------------+

Writing the forces breakdown file (forces_breakdown.dat).
+-------------------------------------------------------------------------------------------------------+
|  Inner_Iter|   Time_Iter|    rms[Rho]|   rms[RhoU]|   rms[RhoV]|   rms[RhoE]|          CL|          CD|
+-------------------------------------------------------------------------------------------------------+
|          61|           0|   -1.032974|    1.400834|    1.413996|    4.430339|    2.469520|    0.570096|
|          62|           0|   -1.049247|    1.422407|    1.436393|    4.411645|    2.572152|    0.596211|
|          63|           0|   -1.065604|    1.442325|    1.459189|    4.391010|    2.657605|    0.616262|
|          64|           0|   -1.080930|    1.460182|    1.480400|    4.369609|    2.725284|    0.630139|
|          65|           0|   -1.095320|    1.474708|    1.498471|    4.347557|    2.774887|    0.637835|
|          66|           0|   -1.106691|    1.484978|    1.512744|    4.327666|    2.806403|    0.639440|
|          67|           0|   -1.114197|    1.490776|    1.522848|    4.311581|    2.820113|    0.635141|
|          68|           0|   -1.118936|    1.492742|    1.528767|    4.299260|    2.816560|    0.625213|
|          69|           0|   -1.121740|    1.491068|    1.530323|    4.290857|    2.796536|    0.610015|
|          70|           0|   -1.123615|    1.485315|    1.527440|    4.285776|    2.761069|    0.589981|
+-----------------------------------------------------------------------+
|        File Writing Summary       |              Filename             |
+-----------------------------------------------------------------------+
|SU2 restart                        |solution_flow.dat                  |
|Paraview                           |flow.vtu                           |
|Paraview surface                   |surface_flow.vtu                   |
+-----------------------------------------------------------------------+

Writing the forces breakdown file (forces_breakdown.dat).
+-------------------------------------------------------------------------------------------------------+
|  Inner_Iter|   Time_Iter|    rms[Rho]|   rms[RhoU]|   rms[RhoV]|   rms[RhoE]|          CL|          CD|
+-------------------------------------------------------------------------------------------------------+
|          71|           0|   -1.124638|    1.475358|    1.520314|    4.284404|    2.711377|    0.565602|
|          72|           0|   -1.126018|    1.461792|    1.509060|    4.284834|    2.648847|    0.537425|
|          73|           0|   -1.127370|    1.444342|    1.493905|    4.287318|    2.575001|    0.506034|
|          74|           0|   -1.129030|    1.422960|    1.475426|    4.290878|    2.491448|    0.472035|
|          75|           0|   -1.131629|    1.397628|    1.453865|    4.294213|    2.399881|    0.436050|
|          76|           0|   -1.135508|    1.368958|    1.429809|    4.296491|    2.302029|    0.398699|
|          77|           0|   -1.140950|    1.337475|    1.403752|    4.297003|    2.199633|    0.360596|
|          78|           0|   -1.148063|    1.304938|    1.377518|    4.295284|    2.094406|    0.322330|
|          79|           0|   -1.157588|    1.272545|    1.352595|    4.290477|    1.987993|    0.284457|
|          80|           0|   -1.168717|    1.242556|    1.330136|    4.283379|    1.881952|    0.247494|
+-----------------------------------------------------------------------+
|        File Writing Summary       |              Filename             |
+-----------------------------------------------------------------------+
|SU2 restart                        |solution_flow.dat                  |
|Paraview                           |flow.vtu                           |
|Paraview surface                   |surface_flow.vtu                   |
+-----------------------------------------------------------------------+

Writing the forces breakdown file (forces_breakdown.dat).
+-------------------------------------------------------------------------------------------------------+
|  Inner_Iter|   Time_Iter|    rms[Rho]|   rms[RhoU]|   rms[RhoV]|   rms[RhoE]|          CL|          CD|
+-------------------------------------------------------------------------------------------------------+
|          81|           0|   -1.181784|    1.217796|    1.311323|    4.273561|    1.777743|    0.211910|
|          82|           0|   -1.196392|    1.199507|    1.297148|    4.261153|    1.676717|    0.178124|
|          83|           0|   -1.211663|    1.189571|    1.288055|    4.247073|    1.580106|    0.146506|
|          84|           0|   -1.227521|    1.188797|    1.283624|    4.231389|    1.488991|    0.117366|
|          85|           0|   -1.244047|    1.195965|    1.282821|    4.213911|    1.404306|    0.090952|
|          86|           0|   -1.260817|    1.209184|    1.284389|    4.195042|    1.326840|    0.067457|
|          87|           0|   -1.278009|    1.225368|    1.287167|    4.174586|    1.257225|    0.047016|
|          88|           0|   -1.295170|    1.241808|    1.290289|    4.152988|    1.195946|    0.029707|
|          89|           0|   -1.311491|    1.258365|    1.292957|    4.131341|    1.143348|    0.015558|
|          90|           0|   -1.326560|    1.273201|    1.294763|    4.110431|    1.099648|    0.004551|
+-----------------------------------------------------------------------+
|        File Writing Summary       |              Filename             |
+-----------------------------------------------------------------------+
|SU2 restart                        |solution_flow.dat                  |
|Paraview                           |flow.vtu                           |
|Paraview surface                   |surface_flow.vtu                   |
+-----------------------------------------------------------------------+

Writing the forces breakdown file (forces_breakdown.dat).
+-------------------------------------------------------------------------------------------------------+
|  Inner_Iter|   Time_Iter|    rms[Rho]|   rms[RhoU]|   rms[RhoV]|   rms[RhoE]|          CL|          CD|
+-------------------------------------------------------------------------------------------------------+
|          91|           0|   -1.340068|    1.285724|    1.295211|    4.090731|    1.064939|   -0.003375|
|          92|           0|   -1.351740|    1.295424|    1.294166|    4.072746|    1.039201|   -0.008316|
|          93|           0|   -1.361563|    1.302561|    1.291624|    4.056968|    1.022312|   -0.010402|
|          94|           0|   -1.369774|    1.307535|    1.287648|    4.043605|    1.014042|   -0.009789|
|          95|           0|   -1.376969|    1.309747|    1.282393|    4.032189|    1.014080|   -0.006663|
|          96|           0|   -1.384169|    1.309195|    1.275822|    4.021783|    1.022024|   -0.001230|
|          97|           0|   -1.391765|    1.306789|    1.267933|    4.012057|    1.037437|    0.006302|
|          98|           0|   -1.399950|    1.302550|    1.259099|    4.002697|    1.059805|    0.015705|
|          99|           0|   -1.408906|    1.296129|    1.248956|    3.993493|    1.088591|    0.026751|
|         100|           0|   -1.418870|    1.287881|    1.237648|    3.984220|    1.123243|    0.039217|
+-----------------------------------------------------------------------+
|        File Writing Summary       |              Filename             |
+-----------------------------------------------------------------------+
|SU2 restart                        |solution_flow.dat                  |
|Paraview                           |flow.vtu                           |
|Paraview surface                   |surface_flow.vtu                   |
+-----------------------------------------------------------------------+

Writing the forces breakdown file (forces_breakdown.dat).
+-------------------------------------------------------------------------------------------------------+
|  Inner_Iter|   Time_Iter|    rms[Rho]|   rms[RhoU]|   rms[RhoV]|   rms[RhoE]|          CL|          CD|
+-------------------------------------------------------------------------------------------------------+
|         101|           0|   -1.429626|    1.277638|    1.225363|    3.975123|    1.163137|    0.052866|
|         102|           0|   -1.440372|    1.265240|    1.212339|    3.967149|    1.207646|    0.067473|
|         103|           0|   -1.451164|    1.251064|    1.198912|    3.960092|    1.256109|    0.082811|
|         104|           0|   -1.462591|    1.235655|    1.185111|    3.953057|    1.307859|    0.098659|
|         105|           0|   -1.473888|    1.218316|    1.170968|    3.946778|    1.362223|    0.114806|
|         106|           0|   -1.485093|    1.199119|    1.156606|    3.941098|    1.418521|    0.131047|
|         107|           0|   -1.496193|    1.178971|    1.142100|    3.935706|    1.476093|    0.147193|
|         108|           0|   -1.507361|    1.158521|    1.127666|    3.930296|    1.534277|    0.163063|
|         109|           0|   -1.518419|    1.138349|    1.113381|    3.924897|    1.592427|    0.178486|
|         110|           0|   -1.529564|    1.119176|    1.099522|    3.919014|    1.649938|    0.193311|
+-----------------------------------------------------------------------+
|        File Writing Summary       |              Filename             |
+-----------------------------------------------------------------------+
|SU2 restart                        |solution_flow.dat                  |
|Paraview                           |flow.vtu                           |
|Paraview surface                   |surface_flow.vtu                   |
+-----------------------------------------------------------------------+

Writing the forces breakdown file (forces_breakdown.dat).
+-------------------------------------------------------------------------------------------------------+
|  Inner_Iter|   Time_Iter|    rms[Rho]|   rms[RhoU]|   rms[RhoV]|   rms[RhoE]|          CL|          CD|
+-------------------------------------------------------------------------------------------------------+
|         111|           0|   -1.540562|    1.101774|    1.086436|    3.912640|    1.706213|    0.207396|
|         112|           0|   -1.551764|    1.086665|    1.074682|    3.905300|    1.760692|    0.220618|
|         113|           0|   -1.562233|    1.074665|    1.064656|    3.897858|    1.812840|    0.232864|
|         114|           0|   -1.571692|    1.066249|    1.056648|    3.890447|    1.862167|    0.244037|
|         115|           0|   -1.580389|    1.061813|    1.050977|    3.882688|    1.908220|    0.254055|
|         116|           0|   -1.588300|    1.061236|    1.047665|    3.874590|    1.950603|    0.262857|
|         117|           0|   -1.595216|    1.063970|    1.046540|    3.866329|    1.988969|    0.270396|
|         118|           0|   -1.601446|    1.069804|    1.047478|    3.857613|    2.023024|    0.276637|
|         119|           0|   -1.606927|    1.078160|    1.050073|    3.848676|    2.052505|    0.281558|
|         120|           0|   -1.612149|    1.088039|    1.053892|    3.839135|    2.077233|    0.285155|
+-----------------------------------------------------------------------+
|        File Writing Summary       |              Filename             |
+-----------------------------------------------------------------------+
|SU2 restart                        |solution_flow.dat                  |
|Paraview                           |flow.vtu                           |
|Paraview surface                   |surface_flow.vtu                   |
+-----------------------------------------------------------------------+

Writing the forces breakdown file (forces_breakdown.dat).
+-------------------------------------------------------------------------------------------------------+
|  Inner_Iter|   Time_Iter|    rms[Rho]|   rms[RhoU]|   rms[RhoV]|   rms[RhoE]|          CL|          CD|
+-------------------------------------------------------------------------------------------------------+
|         121|           0|   -1.616817|    1.098297|    1.058482|    3.829353|    2.097063|    0.287436|
|         122|           0|   -1.621891|    1.108333|    1.063365|    3.818625|    2.111908|    0.288419|
|         123|           0|   -1.627158|    1.117818|    1.068132|    3.807401|    2.121731|    0.288134|
|         124|           0|   -1.632592|    1.126387|    1.072330|    3.796016|    2.126558|    0.286627|
|         125|           0|   -1.638479|    1.133740|    1.075500|    3.784465|    2.126462|    0.283951|
|         126|           0|   -1.643936|    1.138136|    1.077335|    3.773454|    2.121587|    0.280176|
|         127|           0|   -1.649066|    1.140237|    1.077461|    3.763354|    2.112149|    0.275387|
|         128|           0|   -1.653464|    1.139981|    1.075484|    3.755035|    2.098389|    0.269675|
|         129|           0|   -1.656845|    1.137486|    1.071151|    3.749212|    2.080590|    0.263135|
|         130|           0|   -1.659204|    1.132448|    1.064103|    3.746094|    2.059094|    0.255874|
+-----------------------------------------------------------------------+
|        File Writing Summary       |              Filename             |
+-----------------------------------------------------------------------+
|SU2 restart                        |solution_flow.dat                  |
|Paraview                           |flow.vtu                           |
|Paraview surface                   |surface_flow.vtu                   |
+-----------------------------------------------------------------------+

Writing the forces breakdown file (forces_breakdown.dat).
+-------------------------------------------------------------------------------------------------------+
|  Inner_Iter|   Time_Iter|    rms[Rho]|   rms[RhoU]|   rms[RhoV]|   rms[RhoE]|          CL|          CD|
+-------------------------------------------------------------------------------------------------------+
|         131|           0|   -1.660266|    1.124762|    1.054260|    3.746024|    2.034278|    0.248004|
|         132|           0|   -1.660359|    1.114593|    1.041507|    3.748546|    2.006541|    0.239640|
|         133|           0|   -1.659559|    1.102041|    1.025588|    3.753395|    1.976310|    0.230900|
|         134|           0|   -1.658365|    1.087192|    1.006468|    3.759644|    1.944028|    0.221906|
|         135|           0|   -1.656633|    1.071194|    0.984364|    3.767440|    1.910153|    0.212776|
|         136|           0|   -1.655348|    1.052748|    0.958682|    3.774859|    1.875146|    0.203628|
|         137|           0|   -1.654422|    1.032557|    0.929910|    3.782090|    1.839482|    0.194576|
|         138|           0|   -1.653945|    1.011277|    0.898376|    3.788779|    1.803631|    0.185733|
|         139|           0|   -1.653840|    0.989952|    0.864745|    3.794850|    1.768057|    0.177202|
|         140|           0|   -1.654958|    0.969432|    0.830138|    3.799174|    1.733209|    0.169081|
+-----------------------------------------------------------------------+
|        File Writing Summary       |              Filename             |
+-----------------------------------------------------------------------+
|SU2 restart                        |solution_flow.dat                  |
|Paraview                           |flow.vtu                           |
|Paraview surface                   |surface_flow.vtu                   |
+-----------------------------------------------------------------------+

Writing the forces breakdown file (forces_breakdown.dat).
+-------------------------------------------------------------------------------------------------------+
|  Inner_Iter|   Time_Iter|    rms[Rho]|   rms[RhoU]|   rms[RhoV]|   rms[RhoE]|          CL|          CD|
+-------------------------------------------------------------------------------------------------------+
|         141|           0|   -1.657459|    0.950893|    0.796328|    3.801299|    1.699506|    0.161456|
|         142|           0|   -1.661184|    0.935920|    0.765780|    3.801388|    1.667342|    0.154405|
|         143|           0|   -1.665974|    0.925308|    0.741568|    3.799611|    1.637091|    0.147998|
|         144|           0|   -1.672231|    0.919752|    0.726606|    3.795498|    1.609084|    0.142291|
|         145|           0|   -1.679443|    0.919164|    0.722534|    3.789499|    1.583635|    0.137335|
|         146|           0|   -1.687677|    0.922543|    0.728989|    3.781224|    1.561001|    0.133164|
|         147|           0|   -1.696611|    0.929555|    0.743863|    3.771127|    1.541420|    0.129805|
|         148|           0|   -1.705936|    0.939024|    0.764048|    3.759403|    1.525077|    0.127270|
|         149|           0|   -1.715267|    0.949804|    0.786827|    3.746272|    1.512095|    0.125556|
|         150|           0|   -1.724341|    0.960649|    0.810001|    3.731903|    1.502539|    0.124641|
+-----------------------------------------------------------------------+
|        File Writing Summary       |              Filename             |
+-----------------------------------------------------------------------+
|SU2 restart                        |solution_flow.dat                  |
|Paraview                           |flow.vtu                           |
|Paraview surface                   |surface_flow.vtu                   |
+-----------------------------------------------------------------------+

Writing the forces breakdown file (forces_breakdown.dat).
+-------------------------------------------------------------------------------------------------------+
|  Inner_Iter|   Time_Iter|    rms[Rho]|   rms[RhoU]|   rms[RhoV]|   rms[RhoE]|          CL|          CD|
+-------------------------------------------------------------------------------------------------------+
|         151|           0|   -1.732535|    0.971193|    0.832069|    3.717034|    1.496448|    0.124504|
|         152|           0|   -1.739358|    0.980773|    0.851927|    3.702348|    1.493815|    0.125108|
|         153|           0|   -1.744156|    0.989111|    0.869177|    3.688931|    1.494569|    0.126407|
|         154|           0|   -1.747162|    0.995685|    0.883406|    3.677046|    1.498629|    0.128351|
|         155|           0|   -1.748366|    1.000094|    0.894492|    3.667337|    1.505863|    0.130882|
|         156|           0|   -1.747956|    1.002442|    0.902323|    3.660302|    1.516107|    0.133938|
|         157|           0|   -1.746211|    1.002714|    0.906984|    3.656152|    1.529159|    0.137449|
|         158|           0|   -1.744088|    1.000419|    0.908585|    3.653995|    1.544790|    0.141346|
|         159|           0|   -1.741823|    0.995682|    0.907209|    3.653866|    1.562746|    0.145553|
|         160|           0|   -1.739379|    0.988714|    0.902889|    3.655879|    1.582760|    0.149996|
+-----------------------------------------------------------------------+
|        File Writing Summary       |              Filename             |
+-----------------------------------------------------------------------+
|SU2 restart                        |solution_flow.dat                  |
|Paraview                           |flow.vtu                           |
|Paraview surface                   |surface_flow.vtu                   |
+-----------------------------------------------------------------------+

Writing the forces breakdown file (forces_breakdown.dat).
+-------------------------------------------------------------------------------------------------------+
|  Inner_Iter|   Time_Iter|    rms[Rho]|   rms[RhoU]|   rms[RhoV]|   rms[RhoE]|          CL|          CD|
+-------------------------------------------------------------------------------------------------------+
|         161|           0|   -1.737314|    0.979461|    0.895562|    3.659165|    1.604541|    0.154600|
|         162|           0|   -1.736106|    0.968158|    0.885227|    3.662888|    1.627790|    0.159292|
|         163|           0|   -1.735595|    0.954713|    0.872092|    3.667043|    1.652189|    0.163999|
|         164|           0|   -1.735987|    0.938900|    0.856625|    3.671198|    1.677424|    0.168653|
|         165|           0|   -1.737741|    0.921065|    0.838619|    3.674585|    1.703170|    0.173189|
|         166|           0|   -1.740860|    0.901299|    0.818175|    3.676970|    1.729107|    0.177546|
|         167|           0|   -1.745171|    0.879984|    0.795445|    3.678329|    1.754918|    0.181664|
|         168|           0|   -1.750550|    0.857457|    0.770723|    3.678735|    1.780299|    0.185492|
|         169|           0|   -1.756830|    0.834460|    0.744627|    3.678242|    1.804943|    0.188982|
|         170|           0|   -1.763829|    0.811630|    0.718001|    3.676832|    1.828584|    0.192097|
+-----------------------------------------------------------------------+
|        File Writing Summary       |              Filename             |
+-----------------------------------------------------------------------+
|SU2 restart                        |solution_flow.dat                  |
|Paraview                           |flow.vtu                           |
|Paraview surface                   |surface_flow.vtu                   |
+-----------------------------------------------------------------------+

Writing the forces breakdown file (forces_breakdown.dat).
+-------------------------------------------------------------------------------------------------------+
|  Inner_Iter|   Time_Iter|    rms[Rho]|   rms[RhoU]|   rms[RhoV]|   rms[RhoE]|          CL|          CD|
+-------------------------------------------------------------------------------------------------------+
|         171|           0|   -1.771393|    0.789663|    0.691936|    3.674527|    1.850965|    0.194806|
|         172|           0|   -1.779280|    0.769769|    0.667676|    3.671430|    1.871865|    0.197088|
|         173|           0|   -1.787268|    0.753477|    0.646748|    3.667569|    1.891053|    0.198917|
|         174|           0|   -1.795358|    0.741837|    0.630795|    3.662756|    1.908334|    0.200279|
|         175|           0|   -1.803691|    0.735636|    0.621150|    3.656696|    1.923541|    0.201167|
|         176|           0|   -1.812192|    0.734937|    0.618400|    3.649274|    1.936525|    0.201577|
|         177|           0|   -1.820443|    0.739286|    0.622386|    3.640889|    1.947171|    0.201512|
|         178|           0|   -1.828151|    0.747915|    0.631976|    3.631816|    1.955404|    0.200984|
|         179|           0|   -1.835493|    0.759437|    0.645572|    3.621802|    1.961185|    0.200014|
|         180|           0|   -1.841945|    0.772939|    0.661586|    3.611491|    1.964500|    0.198625|
+-----------------------------------------------------------------------+
|        File Writing Summary       |              Filename             |
+-----------------------------------------------------------------------+
|SU2 restart                        |solution_flow.dat                  |
|Paraview                           |flow.vtu                           |
|Paraview surface                   |surface_flow.vtu                   |
+-----------------------------------------------------------------------+

Writing the forces breakdown file (forces_breakdown.dat).
+-------------------------------------------------------------------------------------------------------+
|  Inner_Iter|   Time_Iter|    rms[Rho]|   rms[RhoU]|   rms[RhoV]|   rms[RhoE]|          CL|          CD|
+-------------------------------------------------------------------------------------------------------+
|         181|           0|   -1.847848|    0.786691|    0.678585|    3.600567|    1.965382|    0.196849|
|         182|           0|   -1.853149|    0.800284|    0.695365|    3.589332|    1.963873|    0.194718|
|         183|           0|   -1.857924|    0.812794|    0.711111|    3.577821|    1.960059|    0.192273|
|         184|           0|   -1.862889|    0.823550|    0.725261|    3.565461|    1.954043|    0.189552|
|         185|           0|   -1.867360|    0.832587|    0.737179|    3.553425|    1.945953|    0.186601|
|         186|           0|   -1.870954|    0.839375|    0.746688|    3.542453|    1.935948|    0.183465|
|         187|           0|   -1.873705|    0.843848|    0.753542|    3.533079|    1.924209|    0.180195|
|         188|           0|   -1.875805|    0.845863|    0.757701|    3.525484|    1.910925|    0.176837|
|         189|           0|   -1.877391|    0.845102|    0.758958|    3.519755|    1.896299|    0.173439|
|         190|           0|   -1.878425|    0.841585|    0.757372|    3.516217|    1.880553|    0.170048|
+-----------------------------------------------------------------------+
|        File Writing Summary       |              Filename             |
+-----------------------------------------------------------------------+
|SU2 restart                        |solution_flow.dat                  |
|Paraview                           |flow.vtu                           |
|Paraview surface                   |surface_flow.vtu                   |
+-----------------------------------------------------------------------+

Writing the forces breakdown file (forces_breakdown.dat).
+-------------------------------------------------------------------------------------------------------+
|  Inner_Iter|   Time_Iter|    rms[Rho]|   rms[RhoU]|   rms[RhoV]|   rms[RhoE]|          CL|          CD|
+-------------------------------------------------------------------------------------------------------+
|         191|           0|   -1.879227|    0.835190|    0.752833|    3.514566|    1.863920|    0.166715|
|         192|           0|   -1.880098|    0.826211|    0.745418|    3.514529|    1.846620|    0.163481|
|         193|           0|   -1.881087|    0.814484|    0.734805|    3.515818|    1.828909|    0.160394|
|         194|           0|   -1.882415|    0.799934|    0.721233|    3.518018|    1.811002|    0.157489|
|         195|           0|   -1.884320|    0.782494|    0.704664|    3.520602|    1.793141|    0.154807|
|         196|           0|   -1.886985|    0.762200|    0.685204|    3.523155|    1.775542|    0.152378|
|         197|           0|   -1.889924|    0.739191|    0.662990|    3.526075|    1.758420|    0.150230|
|         198|           0|   -1.893463|    0.713844|    0.638185|    3.528724|    1.741964|    0.148380|
|         199|           0|   -1.897645|    0.686490|    0.611254|    3.530836|    1.726366|    0.146847|
|         200|           0|   -1.902653|    0.657542|    0.582845|    3.531911|    1.711786|    0.145641|
+-----------------------------------------------------------------------+
|        File Writing Summary       |              Filename             |
+-----------------------------------------------------------------------+
|SU2 restart                        |solution_flow.dat                  |
|Paraview                           |flow.vtu                           |
|Paraview surface                   |surface_flow.vtu                   |
+-----------------------------------------------------------------------+

Writing the forces breakdown file (forces_breakdown.dat).
+-------------------------------------------------------------------------------------------------------+
|  Inner_Iter|   Time_Iter|    rms[Rho]|   rms[RhoU]|   rms[RhoV]|   rms[RhoE]|          CL|          CD|
+-------------------------------------------------------------------------------------------------------+
|         201|           0|   -1.908330|    0.627771|    0.554028|    3.531987|    1.698376|    0.144770|
|         202|           0|   -1.914596|    0.598205|    0.526269|    3.530954|    1.686275|    0.144239|
|         203|           0|   -1.921409|    0.570955|    0.501263|    3.528775|    1.675611|    0.144050|
|         204|           0|   -1.929050|    0.547909|    0.481114|    3.524997|    1.666487|    0.144197|
|         205|           0|   -1.937276|    0.530967|    0.467793|    3.519760|    1.658991|    0.144672|
|         206|           0|   -1.945939|    0.521483|    0.462627|    3.513137|    1.653190|    0.145462|
|         207|           0|   -1.954579|    0.519821|    0.465700|    3.505463|    1.649129|    0.146553|
|         208|           0|   -1.963115|    0.525448|    0.475768|    3.496694|    1.646829|    0.147925|
|         209|           0|   -1.971689|    0.536736|    0.490896|    3.486580|    1.646293|    0.149555|
|         210|           0|   -1.980016|    0.551980|    0.509027|    3.475421|    1.647505|    0.151418|
+-----------------------------------------------------------------------+
|        File Writing Summary       |              Filename             |
+-----------------------------------------------------------------------+
|SU2 restart                        |solution_flow.dat                  |
|Paraview                           |flow.vtu                           |
|Paraview surface                   |surface_flow.vtu                   |
+-----------------------------------------------------------------------+

Writing the forces breakdown file (forces_breakdown.dat).
+-------------------------------------------------------------------------------------------------------+
|  Inner_Iter|   Time_Iter|    rms[Rho]|   rms[RhoU]|   rms[RhoV]|   rms[RhoE]|          CL|          CD|
+-------------------------------------------------------------------------------------------------------+
|         211|           0|   -1.987903|    0.569148|    0.528221|    3.463494|    1.650432|    0.153486|
|         212|           0|   -1.995780|    0.585493|    0.546913|    3.450323|    1.655015|    0.155728|
|         213|           0|   -2.002435|    0.601258|    0.564212|    3.437382|    1.661185|    0.158113|
|         214|           0|   -2.007663|    0.615643|    0.579475|    3.425210|    1.668850|    0.160607|
|         215|           0|   -2.011544|    0.628021|    0.592306|    3.414138|    1.677908|    0.163176|
|         216|           0|   -2.014213|    0.638168|    0.602471|    3.404399|    1.688231|    0.165782|
|         217|           0|   -2.015973|    0.645931|    0.609881|    3.396086|    1.699695|    0.168394|
|         218|           0|   -2.017178|    0.651382|    0.614487|    3.389247|    1.712151|    0.170975|
|         219|           0|   -2.017889|    0.654298|    0.616207|    3.384128|    1.725445|    0.173492|
|         220|           0|   -2.018441|    0.654475|    0.615201|    3.380572|    1.739409|    0.175911|
+-----------------------------------------------------------------------+
|        File Writing Summary       |              Filename             |
+-----------------------------------------------------------------------+
|SU2 restart                        |solution_flow.dat                  |
|Paraview                           |flow.vtu                           |
|Paraview surface                   |surface_flow.vtu                   |
+-----------------------------------------------------------------------+

Writing the forces breakdown file (forces_breakdown.dat).
+-------------------------------------------------------------------------------------------------------+
|  Inner_Iter|   Time_Iter|    rms[Rho]|   rms[RhoU]|   rms[RhoV]|   rms[RhoE]|          CL|          CD|
+-------------------------------------------------------------------------------------------------------+
|         221|           0|   -2.019096|    0.651983|    0.611458|    3.378340|    1.753878|    0.178202|
|         222|           0|   -2.019856|    0.646700|    0.604946|    3.377443|    1.768679|    0.180334|
|         223|           0|   -2.020663|    0.638670|    0.595649|    3.377978|    1.783637|    0.182282|
|         224|           0|   -2.021740|    0.627822|    0.583357|    3.379591|    1.798577|    0.184020|
|         225|           0|   -2.023433|    0.614425|    0.568330|    3.381627|    1.813330|    0.185527|
|         226|           0|   -2.025935|    0.598737|    0.550679|    3.383645|    1.827723|    0.186784|
|         227|           0|   -2.029379|    0.580874|    0.530541|    3.385280|    1.841600|    0.187777|
|         228|           0|   -2.033714|    0.561044|    0.508096|    3.386355|    1.854808|    0.188494|
|         229|           0|   -2.039039|    0.539718|    0.483744|    3.386610|    1.867208|    0.188928|
|         230|           0|   -2.045274|    0.517483|    0.457810|    3.385983|    1.878659|    0.189073|
+-----------------------------------------------------------------------+
|        File Writing Summary       |              Filename             |
+-----------------------------------------------------------------------+
|SU2 restart                        |solution_flow.dat                  |
|Paraview                           |flow.vtu                           |
|Paraview surface                   |surface_flow.vtu                   |
+-----------------------------------------------------------------------+

Writing the forces breakdown file (forces_breakdown.dat).
+-------------------------------------------------------------------------------------------------------+
|  Inner_Iter|   Time_Iter|    rms[Rho]|   rms[RhoU]|   rms[RhoV]|   rms[RhoE]|          CL|          CD|
+-------------------------------------------------------------------------------------------------------+
|         231|           0|   -2.052505|    0.495205|    0.431036|    3.384198|    1.889048|    0.188929|
|         232|           0|   -2.060701|    0.473983|    0.404486|    3.381160|    1.898267|    0.188499|
|         233|           0|   -2.069633|    0.454737|    0.379579|    3.376964|    1.906227|    0.187789|
|         234|           0|   -2.079375|    0.438668|    0.357843|    3.371342|    1.912851|    0.186808|
|         235|           0|   -2.089814|    0.426896|    0.340852|    3.364357|    1.918087|    0.185569|
|         236|           0|   -2.100459|    0.420186|    0.329825|    3.356343|    1.921893|    0.184089|
|         237|           0|   -2.111250|    0.418921|    0.325425|    3.347237|    1.924258|    0.182389|
|         238|           0|   -2.121951|    0.422749|    0.327502|    3.337119|    1.925180|    0.180491|
|         239|           0|   -2.132141|    0.430978|    0.335129|    3.326376|    1.924678|    0.178420|
|         240|           0|   -2.142147|    0.442478|    0.346881|    3.314606|    1.922784|    0.176202|
+-----------------------------------------------------------------------+
|        File Writing Summary       |              Filename             |
+-----------------------------------------------------------------------+
|SU2 restart                        |solution_flow.dat                  |
|Paraview                           |flow.vtu                           |
|Paraview surface                   |surface_flow.vtu                   |
+-----------------------------------------------------------------------+

Writing the forces breakdown file (forces_breakdown.dat).
+-------------------------------------------------------------------------------------------------------+
|  Inner_Iter|   Time_Iter|    rms[Rho]|   rms[RhoU]|   rms[RhoV]|   rms[RhoE]|          CL|          CD|
+-------------------------------------------------------------------------------------------------------+
|         241|           0|   -2.151674|    0.455751|    0.361157|    3.302051|    1.919554|    0.173865|
|         242|           0|   -2.160535|    0.469492|    0.376539|    3.288935|    1.915052|    0.171439|
|         243|           0|   -2.168451|    0.482874|    0.391844|    3.275654|    1.909355|    0.168952|
|         244|           0|   -2.175776|    0.495100|    0.406211|    3.261940|    1.902560|    0.166436|
|         245|           0|   -2.181812|    0.505906|    0.419088|    3.248827|    1.894771|    0.163921|
|         246|           0|   -2.186518|    0.514989|    0.429977|    3.236728|    1.886100|    0.161436|
|         247|           0|   -2.189928|    0.521880|    0.438659|    3.225991|    1.876677|    0.159011|
|         248|           0|   -2.192429|    0.526387|    0.444888|    3.216632|    1.866630|    0.156675|
|         249|           0|   -2.194063|    0.528555|    0.448496|    3.209071|    1.856100|    0.154456|
|         250|           0|   -2.195246|    0.528435|    0.449440|    3.203174|    1.845224|    0.152379|
+-----------------------------------------------------------------------+
|        File Writing Summary       |              Filename             |
+-----------------------------------------------------------------------+
|SU2 restart                        |solution_flow.dat                  |
|Paraview                           |flow.vtu                           |
|Paraview surface                   |surface_flow.vtu                   |
+-----------------------------------------------------------------------+

Writing the forces breakdown file (forces_breakdown.dat).
+-------------------------------------------------------------------------------------------------------+
|  Inner_Iter|   Time_Iter|    rms[Rho]|   rms[RhoU]|   rms[RhoV]|   rms[RhoE]|          CL|          CD|
+-------------------------------------------------------------------------------------------------------+
|         251|           0|   -2.196868|    0.525939|    0.447657|    3.198261|    1.834147|    0.150468|
|         252|           0|   -2.198043|    0.520920|    0.443214|    3.195373|    1.823006|    0.148743|
|         253|           0|   -2.198945|    0.513364|    0.436053|    3.194308|    1.811942|    0.147224|
|         254|           0|   -2.199995|    0.503259|    0.426154|    3.194501|    1.801088|    0.145925|
|         255|           0|   -2.201450|    0.490588|    0.413544|    3.195503|    1.790578|    0.144862|
|         256|           0|   -2.203409|    0.475453|    0.398268|    3.197080|    1.780534|    0.144043|
|         257|           0|   -2.205938|    0.457875|    0.380375|    3.198966|    1.771075|    0.143476|
|         258|           0|   -2.209067|    0.437982|    0.360029|    3.200908|    1.762308|    0.143165|
|         259|           0|   -2.213000|    0.415993|    0.337295|    3.202467|    1.754337|    0.143114|
|         260|           0|   -2.217867|    0.392175|    0.312451|    3.203288|    1.747244|    0.143319|
+-----------------------------------------------------------------------+
|        File Writing Summary       |              Filename             |
+-----------------------------------------------------------------------+
|SU2 restart                        |solution_flow.dat                  |
|Paraview                           |flow.vtu                           |
|Paraview surface                   |surface_flow.vtu                   |
+-----------------------------------------------------------------------+

Writing the forces breakdown file (forces_breakdown.dat).
+-------------------------------------------------------------------------------------------------------+
|  Inner_Iter|   Time_Iter|    rms[Rho]|   rms[RhoU]|   rms[RhoV]|   rms[RhoE]|          CL|          CD|
+-------------------------------------------------------------------------------------------------------+
|         261|           0|   -2.223657|    0.366913|    0.286002|    3.203235|    1.741108|    0.143777|
|         262|           0|   -2.230359|    0.340725|    0.258517|    3.202178|    1.735989|    0.144478|
|         263|           0|   -2.237836|    0.314355|    0.231010|    3.200095|    1.731939|    0.145413|
|         264|           0|   -2.246065|    0.288830|    0.204720|    3.196877|    1.728998|    0.146572|
|         265|           0|   -2.254920|    0.265410|    0.181286|    3.192499|    1.727188|    0.147937|
|         266|           0|   -2.264376|    0.245414|    0.162364|    3.186879|    1.726517|    0.149491|
|         267|           0|   -2.274216|    0.230008|    0.149398|    3.180087|    1.726986|    0.151215|
|         268|           0|   -2.284676|    0.219528|    0.143269|    3.171702|    1.728575|    0.153088|
|         269|           0|   -2.295086|    0.214358|    0.143946|    3.162278|    1.731259|    0.155088|
|         270|           0|   -2.304930|    0.214406|    0.150507|    3.152272|    1.734993|    0.157191|
+-----------------------------------------------------------------------+
|        File Writing Summary       |              Filename             |
+-----------------------------------------------------------------------+
|SU2 restart                        |solution_flow.dat                  |
|Paraview                           |flow.vtu                           |
|Paraview surface                   |surface_flow.vtu                   |
+-----------------------------------------------------------------------+

Writing the forces breakdown file (forces_breakdown.dat).
+-------------------------------------------------------------------------------------------------------+
|  Inner_Iter|   Time_Iter|    rms[Rho]|   rms[RhoU]|   rms[RhoV]|   rms[RhoE]|          CL|          CD|
+-------------------------------------------------------------------------------------------------------+
|         271|           0|   -2.314368|    0.219376|    0.161540|    3.141476|    1.739728|    0.159373|
|         272|           0|   -2.322826|    0.228105|    0.175557|    3.130491|    1.745398|    0.161608|
|         273|           0|   -2.330224|    0.239226|    0.191027|    3.119412|    1.751934|    0.163873|
|         274|           0|   -2.336483|    0.251667|    0.206727|    3.108509|    1.759253|    0.166140|
|         275|           0|   -2.341529|    0.264272|    0.221682|    3.098110|    1.767267|    0.168385|
|         276|           0|   -2.345553|    0.275981|    0.235319|    3.088146|    1.775874|    0.170582|
|         277|           0|   -2.348761|    0.286145|    0.247078|    3.078744|    1.784979|    0.172709|
|         278|           0|   -2.350992|    0.294444|    0.256552|    3.070438|    1.794469|    0.174739|
|         279|           0|   -2.352417|    0.300815|    0.263752|    3.063373|    1.804240|    0.176653|
|         280|           0|   -2.353299|    0.305127|    0.268523|    3.057597|    1.814177|    0.178428|
+-----------------------------------------------------------------------+
|        File Writing Summary       |              Filename             |
+-----------------------------------------------------------------------+
|SU2 restart                        |solution_flow.dat                  |
|Paraview                           |flow.vtu                           |
|Paraview surface                   |surface_flow.vtu                   |
+-----------------------------------------------------------------------+

Writing the forces breakdown file (forces_breakdown.dat).
+-------------------------------------------------------------------------------------------------------+
|  Inner_Iter|   Time_Iter|    rms[Rho]|   rms[RhoU]|   rms[RhoV]|   rms[RhoE]|          CL|          CD|
+-------------------------------------------------------------------------------------------------------+
|         281|           0|   -2.353879|    0.307245|    0.270870|    3.053072|    1.824172|    0.180048|
|         282|           0|   -2.354342|    0.307073|    0.270778|    3.049764|    1.834110|    0.181493|
|         283|           0|   -2.354849|    0.304652|    0.268262|    3.047599|    1.843888|    0.182750|
|         284|           0|   -2.355748|    0.300084|    0.263336|    3.046202|    1.853397|    0.183806|
|         285|           0|   -2.357056|    0.293219|    0.256100|    3.045492|    1.862543|    0.184651|
|         286|           0|   -2.359050|    0.284209|    0.246620|    3.045054|    1.871227|    0.185276|
|         287|           0|   -2.361828|    0.273132|    0.234939|    3.044690|    1.879366|    0.185678|
|         288|           0|   -2.365476|    0.260121|    0.221241|    3.044205|    1.886878|    0.185852|
|         289|           0|   -2.370007|    0.245437|    0.205641|    3.043495|    1.893690|    0.185800|
|         290|           0|   -2.375511|    0.229448|    0.188482|    3.042285|    1.899738|    0.185523|
+-----------------------------------------------------------------------+
|        File Writing Summary       |              Filename             |
+-----------------------------------------------------------------------+
|SU2 restart                        |solution_flow.dat                  |
|Paraview                           |flow.vtu                           |
|Paraview surface                   |surface_flow.vtu                   |
+-----------------------------------------------------------------------+

Writing the forces breakdown file (forces_breakdown.dat).
+-------------------------------------------------------------------------------------------------------+
|  Inner_Iter|   Time_Iter|    rms[Rho]|   rms[RhoU]|   rms[RhoV]|   rms[RhoE]|          CL|          CD|
+-------------------------------------------------------------------------------------------------------+
|         291|           0|   -2.381976|    0.212542|    0.170130|    3.040428|    1.904971|    0.185026|
|         292|           0|   -2.389428|    0.195115|    0.150960|    3.037752|    1.909344|    0.184316|
|         293|           0|   -2.397835|    0.177759|    0.131581|    3.034159|    1.912832|    0.183404|
|         294|           0|   -2.407045|    0.161169|    0.112720|    3.029674|    1.915410|    0.182301|
|         295|           0|   -2.417109|    0.146153|    0.095197|    3.024109|    1.917075|    0.181024|
|         296|           0|   -2.427914|    0.133328|    0.079851|    3.017450|    1.917826|    0.179586|
|         297|           0|   -2.439198|    0.123442|    0.067411|    3.009847|    1.917678|    0.178007|
|         298|           0|   -2.450744|    0.116849|    0.058476|    3.001369|    1.916649|    0.176305|
|         299|           0|   -2.462486|    0.113705|    0.053376|    2.991914|    1.914776|    0.174500|
|         300|           0|   -2.474325|    0.113695|    0.052072|    2.981364|    1.912096|    0.172613|
+-----------------------------------------------------------------------+
|        File Writing Summary       |              Filename             |
+-----------------------------------------------------------------------+
|SU2 restart                        |solution_flow.dat                  |
|Paraview                           |flow.vtu                           |
|Paraview surface                   |surface_flow.vtu                   |
+-----------------------------------------------------------------------+

Writing the forces breakdown file (forces_breakdown.dat).
+-------------------------------------------------------------------------------------------------------+
|  Inner_Iter|   Time_Iter|    rms[Rho]|   rms[RhoU]|   rms[RhoV]|   rms[RhoE]|          CL|          CD|
+-------------------------------------------------------------------------------------------------------+
|         301|           0|   -2.486052|    0.116577|    0.054211|    2.969926|    1.908664|    0.170668|
|         302|           0|   -2.497283|    0.121937|    0.059094|    2.957916|    1.904535|    0.168686|
|         303|           0|   -2.507819|    0.129015|    0.065941|    2.945484|    1.899781|    0.166691|
|         304|           0|   -2.517603|    0.137152|    0.073950|    2.932697|    1.894470|    0.164704|
|         305|           0|   -2.526238|    0.145730|    0.082401|    2.920045|    1.888682|    0.162748|
|         306|           0|   -2.533753|    0.154086|    0.090658|    2.907580|    1.882498|    0.160844|
|         307|           0|   -2.540324|    0.161729|    0.098182|    2.895297|    1.876001|    0.159015|
|         308|           0|   -2.545851|    0.168269|    0.104618|    2.883543|    1.869280|    0.157278|
|         309|           0|   -2.550332|    0.173442|    0.109670|    2.872709|    1.862423|    0.155653|
|         310|           0|   -2.553850|    0.177046|    0.113096|    2.863018|    1.855519|    0.154158|
+-----------------------------------------------------------------------+
|        File Writing Summary       |              Filename             |
+-----------------------------------------------------------------------+
|SU2 restart                        |solution_flow.dat                  |
|Paraview                           |flow.vtu                           |
|Paraview surface                   |surface_flow.vtu                   |
+-----------------------------------------------------------------------+

Writing the forces breakdown file (forces_breakdown.dat).
+-------------------------------------------------------------------------------------------------------+
|  Inner_Iter|   Time_Iter|    rms[Rho]|   rms[RhoU]|   rms[RhoV]|   rms[RhoE]|          CL|          CD|
+-------------------------------------------------------------------------------------------------------+
|         311|           0|   -2.556582|    0.178923|    0.114729|    2.854616|    1.848654|    0.152807|
|         312|           0|   -2.558786|    0.178944|    0.114390|    2.847495|    1.841912|    0.151613|
|         313|           0|   -2.560733|    0.177017|    0.112009|    2.841584|    1.835375|    0.150588|
|         314|           0|   -2.562582|    0.173157|    0.107566|    2.836885|    1.829122|    0.149743|
|         315|           0|   -2.564528|    0.167281|    0.101063|    2.833265|    1.823225|    0.149084|
|         316|           0|   -2.566808|    0.159356|    0.092471|    2.830491|    1.817752|    0.148616|
|         317|           0|   -2.569516|    0.149419|    0.081791|    2.828436|    1.812763|    0.148343|
|         318|           0|   -2.572759|    0.137498|    0.069092|    2.826912|    1.808312|    0.148265|
|         319|           0|   -2.576613|    0.123606|    0.054439|    2.825704|    1.804446|    0.148380|
|         320|           0|   -2.581098|    0.107850|    0.037933|    2.824664|    1.801202|    0.148684|
+-----------------------------------------------------------------------+
|        File Writing Summary       |              Filename             |
+-----------------------------------------------------------------------+
|SU2 restart                        |solution_flow.dat                  |
|Paraview                           |flow.vtu                           |
|Paraview surface                   |surface_flow.vtu                   |
+-----------------------------------------------------------------------+

Writing the forces breakdown file (forces_breakdown.dat).
+-------------------------------------------------------------------------------------------------------+
|  Inner_Iter|   Time_Iter|    rms[Rho]|   rms[RhoU]|   rms[RhoV]|   rms[RhoE]|          CL|          CD|
+-------------------------------------------------------------------------------------------------------+
|         321|           0|   -2.586270|    0.090311|    0.019693|    2.823567|    1.798612|    0.149171|
|         322|           0|   -2.592156|    0.071201|   -0.000047|    2.822236|    1.796699|    0.149834|
|         323|           0|   -2.598730|    0.050733|   -0.020896|    2.820542|    1.795476|    0.150662|
|         324|           0|   -2.605987|    0.029180|   -0.042398|    2.818307|    1.794950|    0.151645|
|         325|           0|   -2.614026|    0.006993|   -0.063957|    2.815275|    1.795118|    0.152770|
|         326|           0|   -2.622807|   -0.015350|   -0.084875|    2.811353|    1.795971|    0.154022|
|         327|           0|   -2.632223|   -0.037264|   -0.104326|    2.806518|    1.797492|    0.155387|
|         328|           0|   -2.642083|   -0.058108|   -0.121426|    2.800826|    1.799653|    0.156847|
|         329|           0|   -2.652237|   -0.077147|   -0.135349|    2.794270|    1.802426|    0.158387|
|         330|           0|   -2.662488|   -0.093694|   -0.145448|    2.786911|    1.805770|    0.159988|
+-----------------------------------------------------------------------+
|        File Writing Summary       |              Filename             |
+-----------------------------------------------------------------------+
|SU2 restart                        |solution_flow.dat                  |
|Paraview                           |flow.vtu                           |
|Paraview surface                   |surface_flow.vtu                   |
+-----------------------------------------------------------------------+

Writing the forces breakdown file (forces_breakdown.dat).
+-------------------------------------------------------------------------------------------------------+
|  Inner_Iter|   Time_Iter|    rms[Rho]|   rms[RhoU]|   rms[RhoV]|   rms[RhoE]|          CL|          CD|
+-------------------------------------------------------------------------------------------------------+
|         331|           0|   -2.672652|   -0.107115|   -0.151356|    2.778837|    1.809643|    0.161631|
|         332|           0|   -2.682474|   -0.117022|   -0.153115|    2.770229|    1.813995|    0.163298|
|         333|           0|   -2.691774|   -0.123314|   -0.151086|    2.761160|    1.818773|    0.164972|
|         334|           0|   -2.700336|   -0.126188|   -0.145952|    2.751824|    1.823922|    0.166634|
|         335|           0|   -2.708119|   -0.125928|   -0.138544|    2.742297|    1.829380|    0.168267|
|         336|           0|   -2.715073|   -0.123032|   -0.129711|    2.732683|    1.835085|    0.169852|
|         337|           0|   -2.720984|   -0.118195|   -0.120216|    2.723313|    1.840974|    0.171375|
|         338|           0|   -2.725952|   -0.112329|   -0.110788|    2.714237|    1.846982|    0.172820|
|         339|           0|   -2.730198|   -0.106148|   -0.101974|    2.705398|    1.853047|    0.174174|
|         340|           0|   -2.733710|   -0.100220|   -0.094135|    2.697038|    1.859102|    0.175422|
+-----------------------------------------------------------------------+
|        File Writing Summary       |              Filename             |
+-----------------------------------------------------------------------+
|SU2 restart                        |solution_flow.dat                  |
|Paraview                           |flow.vtu                           |
|Paraview surface                   |surface_flow.vtu                   |
+-----------------------------------------------------------------------+

Writing the forces breakdown file (forces_breakdown.dat).
+-------------------------------------------------------------------------------------------------------+
|  Inner_Iter|   Time_Iter|    rms[Rho]|   rms[RhoU]|   rms[RhoV]|   rms[RhoE]|          CL|          CD|
+-------------------------------------------------------------------------------------------------------+
|         341|           0|   -2.736587|   -0.094941|   -0.087535|    2.689288|    1.865088|    0.176553|
|         342|           0|   -2.739005|   -0.090625|   -0.082361|    2.682210|    1.870942|    0.177557|
|         343|           0|   -2.741163|   -0.087491|   -0.078720|    2.675817|    1.876608|    0.178426|
|         344|           0|   -2.743179|   -0.085732|   -0.076662|    2.670181|    1.882029|    0.179152|
|         345|           0|   -2.745265|   -0.085442|   -0.076210|    2.665216|    1.887157|    0.179730|
|         346|           0|   -2.747689|   -0.086603|   -0.077317|    2.660707|    1.891944|    0.180157|
|         347|           0|   -2.750605|   -0.089244|   -0.079971|    2.656553|    1.896350|    0.180430|
|         348|           0|   -2.754144|   -0.093358|   -0.084089|    2.652621|    1.900337|    0.180548|
|         349|           0|   -2.758363|   -0.098868|   -0.089558|    2.648844|    1.903876|    0.180514|
|         350|           0|   -2.763314|   -0.105695|   -0.096241|    2.645123|    1.906941|    0.180331|
+-----------------------------------------------------------------------+
[...]
|         905|           0|   -4.313372|   -1.801206|   -1.781745|    1.145029|    1.942353|    0.169622|
|         906|           0|   -4.251083|   -1.655929|   -1.753036|    1.242051|    1.942363|    0.169624|
|         907|           0|   -4.181733|   -1.416818|   -1.706650|    1.342919|    1.942373|    0.169626|
|         908|           0|   -4.104505|   -1.210937|   -1.642138|    1.446639|    1.942385|    0.169629|
|         909|           0|   -4.125290|   -1.142378|   -1.614935|    1.445067|    1.942396|    0.169631|
|         910|           0|   -4.310849|   -1.248016|   -1.664921|    1.265785|    1.942410|    0.169634|
+-----------------------------------------------------------------------+
|        File Writing Summary       |              Filename             |
+-----------------------------------------------------------------------+
|SU2 restart                        |solution_flow.dat                  |
|Paraview                           |flow.vtu                           |
|Paraview surface                   |surface_flow.vtu                   |
+-----------------------------------------------------------------------+

Writing the forces breakdown file (forces_breakdown.dat).
+-------------------------------------------------------------------------------------------------------+
|  Inner_Iter|   Time_Iter|    rms[Rho]|   rms[RhoU]|   rms[RhoV]|   rms[RhoE]|          CL|          CD|
+-------------------------------------------------------------------------------------------------------+
|         911|           0|   -4.427598|   -1.351792|   -1.710667|    1.113267|    1.942422|    0.169637|
|         912|           0|   -4.453601|   -1.451064|   -1.746650|    1.024138|    1.942437|    0.169640|
|         913|           0|   -4.447069|   -1.543693|   -1.773387|    0.991424|    1.942451|    0.169643|
|         914|           0|   -4.448616|   -1.626847|   -1.792580|    0.975942|    1.942467|    0.169647|
|         915|           0|   -4.468041|   -1.696199|   -1.805700|    0.953828|    1.942482|    0.169650|
|         916|           0|   -4.502652|   -1.748267|   -1.814479|    0.921169|    1.942499|    0.169654|
|         917|           0|   -4.550304|   -1.783536|   -1.820884|    0.877667|    1.942516|    0.169657|
|         918|           0|   -4.496859|   -1.937684|   -1.826948|    0.960212|    1.942533|    0.169661|
|         919|           0|   -4.389516|   -1.721527|   -1.813537|    1.114611|    1.942550|    0.169664|
|         920|           0|   -4.308558|   -1.465962|   -1.774189|    1.229969|    1.942568|    0.169667|
+-----------------------------------------------------------------------+
|        File Writing Summary       |              Filename             |
+-----------------------------------------------------------------------+
|SU2 restart                        |solution_flow.dat                  |
|Paraview                           |flow.vtu                           |
|Paraview surface                   |surface_flow.vtu                   |
+-----------------------------------------------------------------------+

Writing the forces breakdown file (forces_breakdown.dat).
+-------------------------------------------------------------------------------------------------------+
|  Inner_Iter|   Time_Iter|    rms[Rho]|   rms[RhoU]|   rms[RhoV]|   rms[RhoE]|          CL|          CD|
+-------------------------------------------------------------------------------------------------------+
|         921|           0|   -4.268435|   -1.318014|   -1.725843|    1.293997|    1.942586|    0.169670|
|         922|           0|   -4.271085|   -1.244217|   -1.689280|    1.308300|    1.942604|    0.169674|
|         923|           0|   -4.309435|   -1.224004|   -1.675534|    1.279023|    1.942621|    0.169676|
|         924|           0|   -4.367318|   -1.244875|   -1.687318|    1.214914|    1.942640|    0.169679|
|         925|           0|   -4.420746|   -1.300120|   -1.722484|    1.127344|    1.942657|    0.169681|
|         926|           0|   -4.442823|   -1.388803|   -1.773085|    1.041159|    1.942675|    0.169684|
|         927|           0|   -4.422826|   -1.516251|   -1.821813|    1.007561|    1.942691|    0.169685|
|         928|           0|   -4.374260|   -1.691085|   -1.845972|    1.054974|    1.942709|    0.169687|
|         929|           0|   -4.315879|   -1.838618|   -1.835811|    1.143139|    1.942725|    0.169688|
|         930|           0|   -4.253484|   -1.677328|   -1.798903|    1.240084|    1.942742|    0.169689|
+-----------------------------------------------------------------------+
|        File Writing Summary       |              Filename             |
+-----------------------------------------------------------------------+
|SU2 restart                        |solution_flow.dat                  |
|Paraview                           |flow.vtu                           |
|Paraview surface                   |surface_flow.vtu                   |
+-----------------------------------------------------------------------+

Writing the forces breakdown file (forces_breakdown.dat).
+-------------------------------------------------------------------------------------------------------+
|  Inner_Iter|   Time_Iter|    rms[Rho]|   rms[RhoU]|   rms[RhoV]|   rms[RhoE]|          CL|          CD|
+-------------------------------------------------------------------------------------------------------+
|         931|           0|   -4.183888|   -1.425462|   -1.742859|    1.341084|    1.942757|    0.169690|
|         932|           0|   -4.106526|   -1.215395|   -1.668826|    1.444854|    1.942772|    0.169691|
|         933|           0|   -4.123122|   -1.141651|   -1.636150|    1.447628|    1.942786|    0.169691|
|         934|           0|   -4.310028|   -1.248153|   -1.691887|    1.267898|    1.942800|    0.169691|
|         935|           0|   -4.428598|   -1.353312|   -1.744675|    1.114385|    1.942812|    0.169691|
|         936|           0|   -4.454828|   -1.454593|   -1.787582|    1.024430|    1.942825|    0.169691|
|         937|           0|   -4.447582|   -1.549915|   -1.820294|    0.991665|    1.942836|    0.169690|
|         938|           0|   -4.448169|   -1.636377|   -1.844066|    0.976820|    1.942848|    0.169689|
|         939|           0|   -4.467179|   -1.709259|   -1.860184|    0.954978|    1.942857|    0.169688|
|         940|           0|   -4.501511|   -1.764337|   -1.870452|    0.922484|    1.942867|    0.169687|
+-----------------------------------------------------------------------+
|        File Writing Summary       |              Filename             |
+-----------------------------------------------------------------------+
|SU2 restart                        |solution_flow.dat                  |
|Paraview                           |flow.vtu                           |
|Paraview surface                   |surface_flow.vtu                   |
+-----------------------------------------------------------------------+

Writing the forces breakdown file (forces_breakdown.dat).
+-------------------------------------------------------------------------------------------------------+
|  Inner_Iter|   Time_Iter|    rms[Rho]|   rms[RhoU]|   rms[RhoV]|   rms[RhoE]|          CL|          CD|
+-------------------------------------------------------------------------------------------------------+
|         941|           0|   -4.548982|   -1.801508|   -1.877312|    0.879053|    1.942875|    0.169685|
|         942|           0|   -4.497548|   -1.974938|   -1.883132|    0.958958|    1.942883|    0.169684|
|         943|           0|   -4.389992|   -1.739449|   -1.863915|    1.113556|    1.942890|    0.169681|
|         944|           0|   -4.308727|   -1.472530|   -1.813646|    1.229381|    1.942897|    0.169680|
|         945|           0|   -4.268237|   -1.321253|   -1.755306|    1.293938|    1.942903|    0.169678|
|         946|           0|   -4.270551|   -1.245950|   -1.712485|    1.308746|    1.942909|    0.169676|
|         947|           0|   -4.308835|   -1.224900|   -1.695922|    1.279836|    1.942914|    0.169674|
|         948|           0|   -4.367368|   -1.245287|   -1.707759|    1.215680|    1.942920|    0.169672|
|         949|           0|   -4.422189|   -1.300299|   -1.745884|    1.127430|    1.942924|    0.169669|
|         950|           0|   -4.445548|   -1.389033|   -1.802701|    1.039735|    1.942929|    0.169668|
+-----------------------------------------------------------------------+
|        File Writing Summary       |              Filename             |
+-----------------------------------------------------------------------+
|SU2 restart                        |solution_flow.dat                  |
|Paraview                           |flow.vtu                           |
|Paraview surface                   |surface_flow.vtu                   |
+-----------------------------------------------------------------------+

Writing the forces breakdown file (forces_breakdown.dat).
+-------------------------------------------------------------------------------------------------------+
|  Inner_Iter|   Time_Iter|    rms[Rho]|   rms[RhoU]|   rms[RhoV]|   rms[RhoE]|          CL|          CD|
+-------------------------------------------------------------------------------------------------------+
|         951|           0|   -4.425985|   -1.517141|   -1.859844|    1.004339|    1.942932|    0.169665|
|         952|           0|   -4.377352|   -1.694834|   -1.889788|    1.051078|    1.942936|    0.169663|
|         953|           0|   -4.318558|   -1.850950|   -1.878413|    1.139815|    1.942939|    0.169661|
|         954|           0|   -4.255662|   -1.686804|   -1.835237|    1.237504|    1.942943|    0.169660|
|         955|           0|   -4.185537|   -1.430549|   -1.771463|    1.339151|    1.942945|    0.169658|
|         956|           0|   -4.108170|   -1.218768|   -1.689791|    1.443008|    1.942949|    0.169657|
|         957|           0|   -4.121130|   -1.140757|   -1.652360|    1.449583|    1.942951|    0.169655|
|         958|           0|   -4.309180|   -1.247540|   -1.712965|    1.269349|    1.942955|    0.169654|
|         959|           0|   -4.429696|   -1.353184|   -1.771826|    1.114742|    1.942957|    0.169653|
|         960|           0|   -4.457203|   -1.455254|   -1.820818|    1.023244|    1.942961|    0.169653|
+-----------------------------------------------------------------------+
|        File Writing Summary       |              Filename             |
+-----------------------------------------------------------------------+
|SU2 restart                        |solution_flow.dat                  |
|Paraview                           |flow.vtu                           |
|Paraview surface                   |surface_flow.vtu                   |
+-----------------------------------------------------------------------+

Writing the forces breakdown file (forces_breakdown.dat).
+-------------------------------------------------------------------------------------------------------+
|  Inner_Iter|   Time_Iter|    rms[Rho]|   rms[RhoU]|   rms[RhoV]|   rms[RhoE]|          CL|          CD|
+-------------------------------------------------------------------------------------------------------+
|         961|           0|   -4.450084|   -1.551803|   -1.858840|    0.989661|    1.942963|    0.169652|
|         962|           0|   -4.450382|   -1.640076|   -1.886699|    0.974788|    1.942968|    0.169652|
|         963|           0|   -4.469556|   -1.715361|   -1.905519|    0.952577|    1.942970|    0.169651|
|         964|           0|   -4.504433|   -1.772956|   -1.917226|    0.919412|    1.942975|    0.169652|
|         965|           0|   -4.553094|   -1.812295|   -1.924744|    0.874584|    1.942980|    0.169652|
|         966|           0|   -4.502202|   -1.998013|   -1.930718|    0.954137|    1.942985|    0.169653|
|         967|           0|   -4.393176|   -1.749078|   -1.905981|    1.110628|    1.942989|    0.169653|
|         968|           0|   -4.310937|   -1.475923|   -1.845551|    1.227527|    1.942996|    0.169654|
|         969|           0|   -4.269753|   -1.322963|   -1.778660|    1.292783|    1.943001|    0.169655|
|         970|           0|   -4.271615|   -1.246865|   -1.730933|    1.308089|    1.943009|    0.169657|
+-----------------------------------------------------------------------+
|        File Writing Summary       |              Filename             |
+-----------------------------------------------------------------------+
|SU2 restart                        |solution_flow.dat                  |
|Paraview                           |flow.vtu                           |
|Paraview surface                   |surface_flow.vtu                   |
+-----------------------------------------------------------------------+

Writing the forces breakdown file (forces_breakdown.dat).
+-------------------------------------------------------------------------------------------------------+
|  Inner_Iter|   Time_Iter|    rms[Rho]|   rms[RhoU]|   rms[RhoV]|   rms[RhoE]|          CL|          CD|
+-------------------------------------------------------------------------------------------------------+
|         971|           0|   -4.309721|   -1.225344|   -1.712455|    1.279468|    1.943016|    0.169657|
|         972|           0|   -4.368128|   -1.245450|   -1.724798|    1.215517|    1.943024|    0.169659|
|         973|           0|   -4.422757|   -1.300334|   -1.766004|    1.127364|    1.943031|    0.169660|
|         974|           0|   -4.446082|   -1.389150|   -1.829099|    1.039311|    1.943040|    0.169663|
|         975|           0|   -4.426562|   -1.517881|   -1.895015|    1.003100|    1.943047|    0.169664|
|         976|           0|   -4.377802|   -1.698337|   -1.930945|    1.049570|    1.943057|    0.169666|
|         977|           0|   -4.318984|   -1.863594|   -1.917479|    1.138372|    1.943066|    0.169667|
|         978|           0|   -4.256219|   -1.696698|   -1.866967|    1.236088|    1.943076|    0.169670|
|         979|           0|   -4.186423|   -1.435846|   -1.795150|    1.337590|    1.943084|    0.169671|
|         980|           0|   -4.109322|   -1.222322|   -1.706437|    1.441357|    1.943095|    0.169673|
+-----------------------------------------------------------------------+
|        File Writing Summary       |              Filename             |
+-----------------------------------------------------------------------+
|SU2 restart                        |solution_flow.dat                  |
|Paraview                           |flow.vtu                           |
|Paraview surface                   |surface_flow.vtu                   |
+-----------------------------------------------------------------------+

Writing the forces breakdown file (forces_breakdown.dat).
+-------------------------------------------------------------------------------------------------------+
|  Inner_Iter|   Time_Iter|    rms[Rho]|   rms[RhoU]|   rms[RhoV]|   rms[RhoE]|          CL|          CD|
+-------------------------------------------------------------------------------------------------------+
|         981|           0|   -4.118635|   -1.140026|   -1.664326|    1.451711|    1.943104|    0.169675|
|         982|           0|   -4.307287|   -1.247147|   -1.728943|    1.271120|    1.943115|    0.169677|
|         983|           0|   -4.429642|   -1.353396|   -1.793386|    1.115255|    1.943125|    0.169679|
|         984|           0|   -4.458408|   -1.456444|   -1.848712|    1.022146|    1.943136|    0.169681|
|         985|           0|   -4.451403|   -1.554472|   -1.893145|    0.987804|    1.943145|    0.169682|
|         986|           0|   -4.451624|   -1.644839|   -1.926893|    0.972732|    1.943157|    0.169684|
|         987|           0|   -4.470710|   -1.722762|   -1.950477|    0.950545|    1.943166|    0.169685|
|         988|           0|   -4.505687|   -1.783110|   -1.965525|    0.917270|    1.943178|    0.169687|
|         989|           0|   -4.554431|   -1.824769|   -1.975240|    0.872421|    1.943187|    0.169688|
|         990|           0|   -4.504294|   -2.029302|   -1.982642|    0.951482|    1.943198|    0.169689|
+-----------------------------------------------------------------------+
|        File Writing Summary       |              Filename             |
+-----------------------------------------------------------------------+
|SU2 restart                        |solution_flow.dat                  |
|Paraview                           |flow.vtu                           |
|Paraview surface                   |surface_flow.vtu                   |
+-----------------------------------------------------------------------+

Writing the forces breakdown file (forces_breakdown.dat).
+-------------------------------------------------------------------------------------------------------+
|  Inner_Iter|   Time_Iter|    rms[Rho]|   rms[RhoU]|   rms[RhoV]|   rms[RhoE]|          CL|          CD|
+-------------------------------------------------------------------------------------------------------+
|         991|           0|   -4.394400|   -1.761667|   -1.951334|    1.109232|    1.943207|    0.169690|
|         992|           0|   -4.311503|   -1.480151|   -1.878484|    1.226901|    1.943217|    0.169691|
|         993|           0|   -4.269830|   -1.325044|   -1.801725|    1.292704|    1.943226|    0.169691|
|         994|           0|   -4.271289|   -1.248065|   -1.748491|    1.308462|    1.943236|    0.169692|
|         995|           0|   -4.309159|   -1.226110|   -1.727688|    1.280197|    1.943244|    0.169692|
|         996|           0|   -4.367621|   -1.246029|   -1.740053|    1.216499|    1.943254|    0.169693|
|         997|           0|   -4.422653|   -1.300931|   -1.783603|    1.128467|    1.943261|    0.169693|
|         998|           0|   -4.446709|   -1.390062|   -1.851905|    1.040063|    1.943270|    0.169693|
|         999|           0|   -4.427788|   -1.519814|   -1.925439|    1.002848|    1.943276|    0.169692|

----------------------------- Solver Exit -------------------------------

Maximum number of iterations reached (ITER = 1000) before convergence.
+-----------------------------------------------------------------------+
|      Convergence Field     |     Value    |   Criterion  |  Converged |
+-----------------------------------------------------------------------+
|                  Cauchy[CD]|   9.36093e-06|       < 1e-10|          No|
+-----------------------------------------------------------------------+
-------------------------------------------------------------------------
+-----------------------------------------------------------------------+
|        File Writing Summary       |              Filename             |
+-----------------------------------------------------------------------+
|SU2 restart                        |solution_flow.dat                  |
|Paraview                           |flow.vtu                           |
|Paraview surface                   |surface_flow.vtu                   |
+-----------------------------------------------------------------------+

Writing the forces breakdown file (forces_breakdown.dat).

------------------------- Solver Postprocessing -------------------------
Deleted CNumerics container.
Deleted CIntegration container.
Deleted CSolver container.
Deleted CIteration container.
Deleted CInterpolator container.
Deleted CInterface container.
Deleted CGeometry container.
Deleted CFreeFormDefBox class.
Deleted CSurfaceMovement class.
Deleted CVolumetricMovement class.
Deleted CConfig container.
Deleted nInst container.
Deleted COutput class.
-------------------------------------------------------------------------

------------------------- Exit Success (SU2_CFD) ------------------------

